REMARK  Name = 
REMARK  1 active torsions:
REMARK  status: ('A' for Active; 'I' for Inactive)
REMARK    1  A    between atoms: C_2  and  C_4
REMARK                            x       y       z     vdW  Elec       q    Type
REMARK                         _______ _______ _______ _____ _____    ______ ____
ROOT
ATOM      1  C   UNL     1       0.750  -1.299   0.000  0.00  0.00    +0.000 C 
ATOM      2  C   UNL     1       1.500   0.000   0.000  0.00  0.00    +0.000 C 
ATOM      3  C   UNL     1       0.750   1.299   0.000  0.00  0.00    +0.000 C 
ATOM      4  C   UNL     1      -0.750   1.299   0.000  0.00  0.00    +0.000 C 
ATOM      5  C   UNL     1      -1.500   0.000   0.000  0.00  0.00    +0.000 C 
ATOM      6  C   UNL     1       1.701  -0.750   0.000  0.00  0.00    +0.000 C 
ATOM      7  C   UNL     1       3.000   0.000   0.000  0.00  0.00    +0.000 C 
ATOM      8  C   UNL     1       2.250   1.299   0.000  0.00  0.00    +0.000 C 
ATOM      9  C   UNL     1       2.250  -1.299   0.000  0.00  0.00    +0.000 C 
ATOM     10  C   UNL     1      -0.750  -1.299   0.000  0.00  0.00    +0.000 C 
ENDROOT
BRANCH   1  12
ATOM     11  C   UNL     1       0.750  -3.897   0.000  0.00  0.00    +0.000 C 
ATOM     12  C   UNL     1       1.500  -2.598   0.000  0.00  0.00    +0.000 C 
ATOM     13  N   UNL     1       3.000  -2.598   0.000  0.00  0.00    +0.000 NA
ENDBRANCH   1  12
TORSDOF 1
