REMARK  Name = 
REMARK  4 active torsions:
REMARK  status: ('A' for Active; 'I' for Inactive)
REMARK    1  A    between atoms: C_2  and  C_3
REMARK    2  A    between atoms: C_2  and  C_21
REMARK    3  A    between atoms: C_5  and  C_6
REMARK    4  A    between atoms: C_12  and  C_13
REMARK                            x       y       z     vdW  Elec       q    Type
REMARK                         _______ _______ _______ _____ _____    ______ ____
ROOT
ATOM      1  C   UNL     1      -1.500  -2.598   0.000  0.00  0.00    +0.000 A 
ATOM      2  C   UNL     1      -0.750  -3.897   0.000  0.00  0.00    +0.000 A 
ATOM      3  C   UNL     1       0.750  -3.897   0.000  0.00  0.00    +0.000 A 
ATOM      4  N   UNL     1       1.500  -2.598   0.000  0.00  0.00    +0.000 NA
ATOM      5  C   UNL     1       0.750  -1.299   0.000  0.00  0.00    +0.000 A 
ATOM      6  C   UNL     1       1.500   0.000   0.000  0.00  0.00    +0.000 A 
ATOM      7  C   UNL     1       0.750   1.299   0.000  0.00  0.00    +0.000 A 
ATOM      8  C   UNL     1      -0.750   1.299   0.000  0.00  0.00    +0.000 A 
ATOM      9  C   UNL     1      -1.500   0.000   0.000  0.00  0.00    +0.000 A 
ATOM     10  C   UNL     1      -0.750  -1.299   0.000  0.00  0.00    +0.000 A 
ENDROOT
BRANCH   3  11
ATOM     11  C   UNL     1       1.500  -5.196   0.000  0.00  0.00    +0.000 C 
ATOM     12  F   UNL     1       2.250  -6.495   0.000  0.00  0.00    +0.000 F 
ATOM     13  F   UNL     1       0.201  -5.946   0.000  0.00  0.00    +0.000 F 
ATOM     14  F   UNL     1       2.799  -4.446   0.000  0.00  0.00    +0.000 F 
ENDBRANCH   3  11
BRANCH   6  15
ATOM     15  C   UNL     1       3.000   0.000   0.000  0.00  0.00    +0.000 C 
ATOM     16  F   UNL     1       4.500   0.000   0.000  0.00  0.00    +0.000 F 
ATOM     17  F   UNL     1       3.000   1.500   0.000  0.00  0.00    +0.000 F 
ATOM     18  F   UNL     1       3.000  -1.500   0.000  0.00  0.00    +0.000 F 
ENDBRANCH   6  15
BRANCH   1  20
ATOM     19  O   UNL     1      -3.750  -1.299   0.000  0.00  0.00    +0.000 OA
ATOM     20  C   UNL     1      -3.000  -2.598   0.000  0.00  0.00    +0.000 C 
BRANCH  20  21
ATOM     21  C   UNL     1      -3.750  -3.897   0.000  0.00  0.00    +0.000 C 
ATOM     22  C   UNL     1      -5.250  -3.897   0.000  0.00  0.00    +0.000 C 
ATOM     23  C   UNL     1      -6.000  -5.196   0.000  0.00  0.00    +0.000 C 
ATOM     24  C   UNL     1      -5.250  -6.495   0.000  0.00  0.00    +0.000 C 
ATOM     25  C   UNL     1      -3.750  -6.495   0.000  0.00  0.00    +0.000 C 
ATOM     26  N   UNL     1      -3.000  -5.196   0.000  0.00  0.00    +0.000 NA
ENDBRANCH  20  21
ENDBRANCH   1  20
TORSDOF 4
