REMARK  Name = 
REMARK  3 active torsions:
REMARK  status: ('A' for Active; 'I' for Inactive)
REMARK    1  A    between atoms: N_2  and  C_4
REMARK    2  A    between atoms: C_4  and  C_5
REMARK    3  A    between atoms: C_5  and  C_6
REMARK                            x       y       z     vdW  Elec       q    Type
REMARK                         _______ _______ _______ _____ _____    ______ ____
ROOT
ATOM      1  C   UNL     1       3.148  -2.138   0.000  0.00  0.00    +0.000 C 
ATOM      2  C   UNL     1       1.685  -2.472   0.000  0.00  0.00    +0.000 C 
ATOM      3  C   UNL     1       0.750  -1.299   0.000  0.00  0.00    +0.000 A 
ATOM      4  C   UNL     1       1.500   0.000   0.000  0.00  0.00    +0.000 A 
ATOM      5  C   UNL     1       0.750   1.299   0.000  0.00  0.00    +0.000 A 
ATOM      6  C   UNL     1      -0.750   1.299   0.000  0.00  0.00    +0.000 A 
ATOM      7  C   UNL     1      -1.500   0.000   0.000  0.00  0.00    +0.000 A 
ATOM      8  C   UNL     1      -0.750  -1.299   0.000  0.00  0.00    +0.000 A 
ATOM      9  C   UNL     1      -1.685  -2.472   0.000  0.00  0.00    +0.000 C 
ATOM     10  S   UNL     1      -1.351  -3.934   0.000  0.00  0.00    +0.000 S 
ATOM     11  C   UNL     1       0.000  -4.585   0.000  0.00  0.00    +0.000 A 
ATOM     12  C   UNL     1      -0.112  -6.081   0.000  0.00  0.00    +0.000 A 
ATOM     13  C   UNL     1       1.127  -6.926   0.000  0.00  0.00    +0.000 A 
ATOM     14  C   UNL     1       2.479  -6.275   0.000  0.00  0.00    +0.000 A 
ATOM     15  C   UNL     1       2.591  -4.779   0.000  0.00  0.00    +0.000 A 
ATOM     16  C   UNL     1       1.351  -3.934   0.000  0.00  0.00    +0.000 A 
ENDROOT
BRANCH   1  17
ATOM     17  C   UNL     1       3.590  -0.705   0.000  0.00  0.00    +0.000 C 
BRANCH  17  18
ATOM     18  C   UNL     1       5.052  -0.371   0.000  0.00  0.00    +0.000 C 
BRANCH  18  20
ATOM     19  C   UNL     1       6.957   1.396   0.000  0.00  0.00    +0.000 C 
ATOM     20  N   UNL     1       5.494   1.062   0.000  0.00  0.00    +0.000 NA
ATOM     21  C   UNL     1       4.474   2.162   0.000  0.00  0.00    +0.000 C 
ENDBRANCH  18  20
ENDBRANCH  17  18
ENDBRANCH   1  17
TORSDOF 3
