REMARK  Name = 
REMARK  10 active torsions:
REMARK  status: ('A' for Active; 'I' for Inactive)
REMARK    1  A    between atoms: C_2  and  O_3
REMARK    2  A    between atoms: O_3  and  C_4
REMARK    3  A    between atoms: C_4  and  C_6
REMARK    4  A    between atoms: C_6  and  C_7
REMARK    5  A    between atoms: C_6  and  N_15
REMARK    6  A    between atoms: C_7  and  C_8
REMARK    7  A    between atoms: C_8  and  C_9
REMARK    8  A    between atoms: N_15  and  CA_16
REMARK    9  A    between atoms: CA_16  and  C_18
REMARK   10  A    between atoms: C_29  and  C_30
REMARK                            x       y       z     vdW  Elec       q    Type
REMARK                         _______ _______ _______ _____ _____    ______ ____
ROOT
ATOM      1  CA  ALA A   1       3.000  -5.196   0.000  0.00  0.00    +0.000 C 
ATOM      2  CB  ALA A   1       3.750  -6.495   0.000  0.00  0.00    +0.000 C 
ENDROOT
BRANCH   1   3
ATOM      3  C   ALA A   1       1.500  -5.196   0.000  0.00  0.00    +0.000 C 
ATOM      4  O   ALA A   1       0.750  -6.495   0.000  0.00  0.00    +0.000 OA
ATOM      5  N   UNK A   2       0.750  -3.897   0.000  0.00  0.00    +0.000 N 
ATOM      6  C   UNK A   2       1.500  -2.598   0.000  0.00  0.00    +0.000 C 
ATOM      7  C   UNK A   2       0.750  -1.299   0.000  0.00  0.00    +0.000 A 
ATOM      8  C   UNK A   2       1.500   0.000   0.000  0.00  0.00    +0.000 A 
ATOM      9  C   UNK A   2       0.750   1.299   0.000  0.00  0.00    +0.000 A 
ATOM     10  C   UNK A   2      -0.750   1.299   0.000  0.00  0.00    +0.000 A 
ATOM     11  C   UNK A   2      -1.500   0.000   0.000  0.00  0.00    +0.000 A 
ATOM     12  C   UNK A   2      -0.750  -1.299   0.000  0.00  0.00    +0.000 A 
ATOM     13  C   UNK A   2      -1.500  -2.598   0.000  0.00  0.00    +0.000 C 
ATOM     14  C   UNK A   2      -0.750  -3.897   0.000  0.00  0.00    +0.000 C 
BRANCH  14  15
ATOM     15  C   UNK A   2      -1.500  -5.196   0.000  0.00  0.00    +0.000 C 
ATOM     16  O   UNK A   2      -0.750  -6.495   0.000  0.00  0.00    +0.000 OA
ATOM     17  O   UNK A   2      -3.000  -5.196   0.000  0.00  0.00    +0.000 OA
ENDBRANCH  14  15
ENDBRANCH   1   3
BRANCH   1  18
ATOM     18  N   ALA A   1       3.750  -3.897   0.000  0.00  0.00    +0.000 NA
BRANCH  18  19
ATOM     19  C   UNK A   0       5.250  -3.897   0.000  0.00  0.00    +0.000 C 
BRANCH  19  20
ATOM     20  C   UNK A   0       6.000  -5.196   0.000  0.00  0.00    +0.000 C 
ATOM     21  O   UNK A   0       5.250  -6.495   0.000  0.00  0.00    +0.000 OA
BRANCH  20  22
ATOM     22  O   UNK A   0       7.500  -5.196   0.000  0.00  0.00    +0.000 OA
BRANCH  22  24
ATOM     23  C   UNK A   0       9.750  -6.495   0.000  0.00  0.00    +0.000 C 
ATOM     24  C   UNK A   0       8.250  -6.495   0.000  0.00  0.00    +0.000 C 
ENDBRANCH  22  24
ENDBRANCH  20  22
ENDBRANCH  19  20
BRANCH  19  25
ATOM     25  C   UNK A   0       6.000  -2.598   0.000  0.00  0.00    +0.000 C 
BRANCH  25  26
ATOM     26  C   UNK A   0       7.500  -2.598   0.000  0.00  0.00    +0.000 C 
BRANCH  26  27
ATOM     27  C   UNK A   0       8.250  -1.299   0.000  0.00  0.00    +0.000 A 
ATOM     28  C   UNK A   0       9.750  -1.299   0.000  0.00  0.00    +0.000 A 
ATOM     29  C   UNK A   0      10.500   0.000   0.000  0.00  0.00    +0.000 A 
ATOM     30  C   UNK A   0       9.750   1.299   0.000  0.00  0.00    +0.000 A 
ATOM     31  C   UNK A   0       8.250   1.299   0.000  0.00  0.00    +0.000 A 
ATOM     32  C   UNK A   0       7.500   0.000   0.000  0.00  0.00    +0.000 A 
ENDBRANCH  26  27
ENDBRANCH  25  26
ENDBRANCH  19  25
ENDBRANCH  18  19
ENDBRANCH   1  18
TORSDOF 10
