REMARK  Name = 
REMARK  6 active torsions:
REMARK  status: ('A' for Active; 'I' for Inactive)
REMARK    1  A    between atoms: N_2  and  C_3
REMARK    2  A    between atoms: C_3  and  C_4
REMARK    3  A    between atoms: C_4  and  C_5
REMARK    4  A    between atoms: C_5  and  O_6
REMARK    5  A    between atoms: C_5  and  C_17
REMARK    6  A    between atoms: O_6  and  C_7
REMARK                            x       y       z     vdW  Elec       q    Type
REMARK                         _______ _______ _______ _____ _____    ______ ____
ROOT
ATOM      1  O   UNL     1      -3.000  -2.598   0.000  0.00  0.00    +0.000 OA
ENDROOT
BRANCH   1   2
ATOM      2  C   UNL     1      -1.500  -2.598   0.000  0.00  0.00    +0.000 A 
ATOM      3  C   UNL     1      -0.750  -3.897   0.000  0.00  0.00    +0.000 A 
ATOM      4  C   UNL     1       0.750  -3.897   0.000  0.00  0.00    +0.000 A 
ATOM      5  C   UNL     1       1.500  -2.598   0.000  0.00  0.00    +0.000 A 
ATOM      6  C   UNL     1       0.750  -1.299   0.000  0.00  0.00    +0.000 A 
ATOM      7  C   UNL     1       1.500   0.000   0.000  0.00  0.00    +0.000 A 
ATOM      8  C   UNL     1       0.750   1.299   0.000  0.00  0.00    +0.000 A 
ATOM      9  C   UNL     1      -0.750   1.299   0.000  0.00  0.00    +0.000 A 
ATOM     10  C   UNL     1      -1.500   0.000   0.000  0.00  0.00    +0.000 A 
ATOM     11  C   UNL     1      -0.750  -1.299   0.000  0.00  0.00    +0.000 A 
ENDBRANCH   1   2
BRANCH   1  12
ATOM     12  C   UNL     1      -3.750  -3.897   0.000  0.00  0.00    +0.000 C 
BRANCH  12  13
ATOM     13  C   UNL     1      -3.000  -5.196   0.000  0.00  0.00    +0.000 A 
ATOM     14  C   UNL     1      -1.508  -5.353   0.000  0.00  0.00    +0.000 A 
ATOM     15  C   UNL     1      -1.196  -6.820   0.000  0.00  0.00    +0.000 A 
ATOM     16  C   UNL     1      -2.495  -7.570   0.000  0.00  0.00    +0.000 A 
ATOM     17  S   UNL     1      -3.610  -6.566   0.000  0.00  0.00    +0.000 S 
ENDBRANCH  12  13
BRANCH  12  18
ATOM     18  C   UNL     1      -5.250  -3.897   0.000  0.00  0.00    +0.000 C 
BRANCH  18  19
ATOM     19  C   UNL     1      -6.000  -5.196   0.000  0.00  0.00    +0.000 C 
BRANCH  19  21
ATOM     20  C   UNL     1      -8.250  -6.495   0.000  0.00  0.00    +0.000 C 
ATOM     21  N   UNL     1      -7.500  -5.196   0.000  0.00  0.00    +0.000 NA
ENDBRANCH  19  21
ENDBRANCH  18  19
ENDBRANCH  12  18
ENDBRANCH   1  12
TORSDOF 6
