REMARK  Name = 
REMARK  3 active torsions:
REMARK  status: ('A' for Active; 'I' for Inactive)
REMARK    1  A    between atoms: C_6  and  C_7
REMARK    2  A    between atoms: C_7  and  C_8
REMARK    3  A    between atoms: C_8  and  N_9
REMARK                            x       y       z     vdW  Elec       q    Type
REMARK                         _______ _______ _______ _____ _____    ______ ____
ROOT
ATOM      1  N   UNL     1      -6.228   3.750   0.000  0.00  0.00    +0.000 NA
ATOM      2  C   UNL     1      -6.228   5.250   0.000  0.00  0.00    +0.000 C 
ATOM      3  C   UNL     1      -7.527   6.000   0.000  0.00  0.00    +0.000 C 
ATOM      4  N   UNL     1      -8.826   5.250   0.000  0.00  0.00    +0.000 N 
ATOM      5  C   UNL     1     -10.126   6.000   0.000  0.00  0.00    +0.000 A 
ATOM      6  N   UNL     1     -11.496   5.390   0.000  0.00  0.00    +0.000 NA
ATOM      7  S   UNL     1     -12.500   6.505   0.000  0.00  0.00    +0.000 S 
ATOM      8  C   UNL     1     -11.750   7.804   0.000  0.00  0.00    +0.000 A 
ATOM      9  C   UNL     1     -12.213   9.230   0.000  0.00  0.00    +0.000 A 
ATOM     10  C   UNL     1     -11.209  10.345   0.000  0.00  0.00    +0.000 A 
ATOM     11  C   UNL     1      -9.742  10.033   0.000  0.00  0.00    +0.000 A 
ATOM     12  C   UNL     1      -9.279   8.607   0.000  0.00  0.00    +0.000 A 
ATOM     13  C   UNL     1     -10.282   7.492   0.000  0.00  0.00    +0.000 A 
ATOM     14  C   UNL     1      -8.826   3.750   0.000  0.00  0.00    +0.000 C 
ATOM     15  C   UNL     1      -7.527   3.000   0.000  0.00  0.00    +0.000 C 
ENDROOT
BRANCH   1  16
ATOM     16  C   UNL     1      -4.929   3.000   0.000  0.00  0.00    +0.000 C 
BRANCH  16  17
ATOM     17  C   UNL     1      -4.929   1.500   0.000  0.00  0.00    +0.000 C 
BRANCH  17  23
ATOM     18  O   UNL     1       2.776   0.000   0.000  0.00  0.00    +0.000 OA
ATOM     19  C   UNL     1       1.276   0.000   0.000  0.00  0.00    +0.000 C 
ATOM     20  C   UNL     1       0.394   1.214   0.000  0.00  0.00    +0.000 C 
ATOM     21  C   UNL     1      -1.032   0.750   0.000  0.00  0.00    +0.000 A 
ATOM     22  C   UNL     1      -2.331   1.500   0.000  0.00  0.00    +0.000 A 
ATOM     23  C   UNL     1      -3.630   0.750   0.000  0.00  0.00    +0.000 A 
ATOM     24  C   UNL     1      -3.630  -0.750   0.000  0.00  0.00    +0.000 A 
ATOM     25 CL   UNL     1      -4.929  -1.500   0.000  0.00  0.00    +0.000 Cl
ATOM     26  C   UNL     1      -2.331  -1.500   0.000  0.00  0.00    +0.000 A 
ATOM     27  C   UNL     1      -1.032  -0.750   0.000  0.00  0.00    +0.000 A 
ATOM     28  N   UNL     1       0.394  -1.214   0.000  0.00  0.00    +0.000 NA
ENDBRANCH  17  23
ENDBRANCH  16  17
ENDBRANCH   1  16
TORSDOF 3
