REMARK  Name = 
REMARK  6 active torsions:
REMARK  status: ('A' for Active; 'I' for Inactive)
REMARK    1  A    between atoms: C_5  and  C_6
REMARK    2  A    between atoms: C_6  and  C_7
REMARK    3  A    between atoms: C_6  and  O_13
REMARK    4  A    between atoms: C_7  and  N_8
REMARK    5  A    between atoms: O_13  and  C_14
REMARK    6  A    between atoms: C_14  and  C_15
REMARK                            x       y       z     vdW  Elec       q    Type
REMARK                         _______ _______ _______ _____ _____    ______ ____
ROOT
ATOM      1  C   UNL     1      -4.379  -5.120   0.000  0.00  0.00    +0.000 C 
ENDROOT
BRANCH   1   6
ATOM      2 CL   UNL     1      -5.626 -10.989   0.000  0.00  0.00    +0.000 Cl
ATOM      3  C   UNL     1      -5.314  -9.522   0.000  0.00  0.00    +0.000 A 
ATOM      4  C   UNL     1      -6.429  -8.518   0.000  0.00  0.00    +0.000 A 
ATOM      5  C   UNL     1      -6.117  -7.051   0.000  0.00  0.00    +0.000 A 
ATOM      6  C   UNL     1      -4.690  -6.587   0.000  0.00  0.00    +0.000 A 
ATOM      7  C   UNL     1      -3.576  -7.591   0.000  0.00  0.00    +0.000 A 
ATOM      8 CL   UNL     1      -2.149  -7.127   0.000  0.00  0.00    +0.000 Cl
ATOM      9  C   UNL     1      -3.888  -9.058   0.000  0.00  0.00    +0.000 A 
ENDBRANCH   1   6
BRANCH   1  10
ATOM     10  C   UNL     1      -5.493  -4.116   0.000  0.00  0.00    +0.000 C 
BRANCH  10  11
ATOM     11  N   UNL     1      -5.181  -2.649   0.000  0.00  0.00    +0.000 N 
ATOM     12  C   UNL     1      -6.185  -1.534   0.000  0.00  0.00    +0.000 A 
ATOM     13  C   UNL     1      -5.435  -0.235   0.000  0.00  0.00    +0.000 A 
ATOM     14  N   UNL     1      -3.968  -0.547   0.000  0.00  0.00    +0.000 NA
ATOM     15  C   UNL     1      -3.811  -2.039   0.000  0.00  0.00    +0.000 A 
ENDBRANCH  10  11
ENDBRANCH   1  10
BRANCH   1  16
ATOM     16  O   UNL     1      -2.952  -4.656   0.000  0.00  0.00    +0.000 OA
BRANCH  16  17
ATOM     17  C   UNL     1      -2.640  -3.189   0.000  0.00  0.00    +0.000 C 
BRANCH  17  18
ATOM     18  C   UNL     1      -1.214  -2.726   0.000  0.00  0.00    +0.000 A 
ATOM     19  C   UNL     1       0.000  -3.607   0.000  0.00  0.00    +0.000 A 
ATOM     20  S   UNL     1       1.214  -2.726   0.000  0.00  0.00    +0.000 S 
ATOM     21  C   UNL     1       0.750  -1.299   0.000  0.00  0.00    +0.000 A 
ATOM     22  C   UNL     1       1.500   0.000   0.000  0.00  0.00    +0.000 A 
ATOM     23 CL   UNL     1       3.000   0.000   0.000  0.00  0.00    +0.000 Cl
ATOM     24  C   UNL     1       0.750   1.299   0.000  0.00  0.00    +0.000 A 
ATOM     25  C   UNL     1      -0.750   1.299   0.000  0.00  0.00    +0.000 A 
ATOM     26  C   UNL     1      -1.500   0.000   0.000  0.00  0.00    +0.000 A 
ATOM     27  C   UNL     1      -0.750  -1.299   0.000  0.00  0.00    +0.000 A 
ENDBRANCH  17  18
ENDBRANCH  16  17
ENDBRANCH   1  16
TORSDOF 6
