REMARK  Name = 
REMARK  14 active torsions:
REMARK  status: ('A' for Active; 'I' for Inactive)
REMARK    1  A    between atoms: C_2  and  N_3
REMARK    2  A    between atoms: N_3  and  C_4
REMARK    3  A    between atoms: N_3  and  C_21
REMARK    4  A    between atoms: C_4  and  C_5
REMARK    5  A    between atoms: C_5  and  C_6
REMARK    6  A    between atoms: C_6  and  C_7
REMARK    7  A    between atoms: C_7  and  O_8
REMARK    8  A    between atoms: O_8  and  C_9
REMARK    9  A    between atoms: C_9  and  C_11
REMARK   10  A    between atoms: C_14  and  O_15
REMARK   11  A    between atoms: C_17  and  O_18
REMARK   12  A    between atoms: C_21  and  C_23
REMARK   13  A    between atoms: C_23  and  C_24
REMARK   14  A    between atoms: C_27  and  O_28
REMARK                            x       y       z     vdW  Elec       q    Type
REMARK                         _______ _______ _______ _____ _____    ______ ____
ROOT
ATOM      1  C   UNL     1       1.500  -7.794   0.000  0.00  0.00    +0.000 C 
ENDROOT
BRANCH   1   2
ATOM      2  C   UNL     1       0.750  -9.093   0.000  0.00  0.00    +0.000 C 
BRANCH   2   3
ATOM      3  N   UNL     1       1.500 -10.392   0.000  0.00  0.00    +0.000 NA
BRANCH   3   5
ATOM      4  C   UNL     1       1.500 -12.990   0.000  0.00  0.00    +0.000 C 
ATOM      5  C   UNL     1       0.750 -11.691   0.000  0.00  0.00    +0.000 C 
ENDBRANCH   3   5
BRANCH   3   6
ATOM      6  C   UNL     1       3.000 -10.392   0.000  0.00  0.00    +0.000 C 
ATOM      7  C   UNL     1       3.750 -11.691   0.000  0.00  0.00    +0.000 C 
BRANCH   6   8
ATOM      8  C   UNL     1       3.750  -9.093   0.000  0.00  0.00    +0.000 C 
BRANCH   8   9
ATOM      9  C   UNL     1       5.250  -9.093   0.000  0.00  0.00    +0.000 A 
ATOM     10  C   UNL     1       6.000 -10.392   0.000  0.00  0.00    +0.000 A 
ATOM     11  C   UNL     1       7.500 -10.392   0.000  0.00  0.00    +0.000 A 
ATOM     12  C   UNL     1       8.250  -9.093   0.000  0.00  0.00    +0.000 A 
ATOM     13  C   UNL     1       7.500  -7.794   0.000  0.00  0.00    +0.000 A 
ATOM     14  C   UNL     1       6.000  -7.794   0.000  0.00  0.00    +0.000 A 
BRANCH  12  15
ATOM     15  O   UNL     1       9.750  -9.093   0.000  0.00  0.00    +0.000 OA
ATOM     16  C   UNL     1      10.500 -10.392   0.000  0.00  0.00    +0.000 C 
ENDBRANCH  12  15
ENDBRANCH   8   9
ENDBRANCH   6   8
ENDBRANCH   3   6
ENDBRANCH   2   3
ENDBRANCH   1   2
BRANCH   1  17
ATOM     17  C   UNL     1       0.750  -6.495   0.000  0.00  0.00    +0.000 C 
BRANCH  17  18
ATOM     18  C   UNL     1       1.500  -5.196   0.000  0.00  0.00    +0.000 C 
BRANCH  18  19
ATOM     19  O   UNL     1       0.750  -3.897   0.000  0.00  0.00    +0.000 OA
BRANCH  19  20
ATOM     20  C   UNL     1       1.500  -2.598   0.000  0.00  0.00    +0.000 C 
ATOM     21  O   UNL     1       3.000  -2.598   0.000  0.00  0.00    +0.000 OA
BRANCH  20  22
ATOM     22  C   UNL     1       0.750  -1.299   0.000  0.00  0.00    +0.000 A 
ATOM     23  C   UNL     1       1.500   0.000   0.000  0.00  0.00    +0.000 A 
ATOM     24  C   UNL     1       0.750   1.299   0.000  0.00  0.00    +0.000 A 
ATOM     25  C   UNL     1      -0.750   1.299   0.000  0.00  0.00    +0.000 A 
ATOM     26  C   UNL     1      -1.500   0.000   0.000  0.00  0.00    +0.000 A 
ATOM     27  C   UNL     1      -0.750  -1.299   0.000  0.00  0.00    +0.000 A 
BRANCH  25  28
ATOM     28  O   UNL     1      -1.500   2.598   0.000  0.00  0.00    +0.000 OA
ATOM     29  C   UNL     1      -0.750   3.897   0.000  0.00  0.00    +0.000 C 
ENDBRANCH  25  28
BRANCH  26  30
ATOM     30  O   UNL     1      -3.000   0.000   0.000  0.00  0.00    +0.000 OA
ATOM     31  C   UNL     1      -3.750  -1.299   0.000  0.00  0.00    +0.000 C 
ENDBRANCH  26  30
ENDBRANCH  20  22
ENDBRANCH  19  20
ENDBRANCH  18  19
ENDBRANCH  17  18
ENDBRANCH   1  17
TORSDOF 14
