REMARK  Name = 
REMARK  4 active torsions:
REMARK  status: ('A' for Active; 'I' for Inactive)
REMARK    1  A    between atoms: N_4  and  N_5
REMARK    2  A    between atoms: C_6  and  C_7
REMARK    3  A    between atoms: C_10  and  C_11
REMARK    4  A    between atoms: C_14  and  N_15
REMARK                            x       y       z     vdW  Elec       q    Type
REMARK                         _______ _______ _______ _____ _____    ______ ____
ROOT
ATOM      1  C   UNL     1       3.304  -4.222   0.000  0.00  0.00    +0.000 A 
ATOM      2  C   UNL     1       2.005  -4.972   0.000  0.00  0.00    +0.000 A 
ATOM      3  C   UNL     1       0.890  -3.968   0.000  0.00  0.00    +0.000 A 
ATOM      4  C   UNL     1       1.500  -2.598   0.000  0.00  0.00    +0.000 A 
ATOM      5  O   UNL     1       2.992  -2.755   0.000  0.00  0.00    +0.000 OA
ENDROOT
BRANCH   4   6
ATOM      6  C   UNL     1       0.750  -1.299   0.000  0.00  0.00    +0.000 A 
ATOM      7  C   UNL     1       1.500   0.000   0.000  0.00  0.00    +0.000 A 
ATOM      8  C   UNL     1       0.750   1.299   0.000  0.00  0.00    +0.000 A 
ATOM      9  C   UNL     1      -0.750   1.299   0.000  0.00  0.00    +0.000 A 
ATOM     10  C   UNL     1      -1.500   0.000   0.000  0.00  0.00    +0.000 A 
ATOM     11  C   UNL     1      -0.750  -1.299   0.000  0.00  0.00    +0.000 A 
BRANCH   9  12
ATOM     12  N   UNL     1      -1.500   2.598   0.000  0.00  0.00    +0.000 N 
ATOM     13  O   UNL     1      -3.000   2.598   0.000  0.00  0.00    +0.000 OA
ATOM     14  O   UNL     1      -0.750   3.897   0.000  0.00  0.00    +0.000 OA
ENDBRANCH   9  12
ENDBRANCH   4   6
BRANCH   1  16
ATOM     15  N   UNL     1       4.831  -6.324   0.000  0.00  0.00    +0.000 NA
ATOM     16  C   UNL     1       4.674  -4.832   0.000  0.00  0.00    +0.000 C 
BRANCH  15  20
ATOM     17  O   UNL     1      10.082  -6.876   0.000  0.00  0.00    +0.000 OA
ATOM     18  C   UNL     1       8.615  -7.188   0.000  0.00  0.00    +0.000 C 
ATOM     19  C   UNL     1       7.500  -6.184   0.000  0.00  0.00    +0.000 C 
ATOM     20  N   UNL     1       6.201  -6.934   0.000  0.00  0.00    +0.000 N 
ATOM     21  C   UNL     1       6.513  -8.401   0.000  0.00  0.00    +0.000 C 
ATOM     22  O   UNL     1       5.509  -9.516   0.000  0.00  0.00    +0.000 OA
ATOM     23  N   UNL     1       8.005  -8.558   0.000  0.00  0.00    +0.000 NA
ENDBRANCH  15  20
ENDBRANCH   1  16
TORSDOF 4
