REMARK  Name = 
REMARK  8 active torsions:
REMARK  status: ('A' for Active; 'I' for Inactive)
REMARK    1  A    between atoms: C_2  and  C_3
REMARK    2  A    between atoms: C_3  and  C_4
REMARK    3  A    between atoms: C_4  and  O_6
REMARK    4  A    between atoms: O_6  and  C_7
REMARK    5  A    between atoms: C_7  and  C_8
REMARK    6  A    between atoms: C_8  and  C_10
REMARK    7  A    between atoms: C_10  and  O_11
REMARK    8  A    between atoms: O_11  and  C_12
REMARK                            x       y       z     vdW  Elec       q    Type
REMARK                         _______ _______ _______ _____ _____    ______ ____
ROOT
ATOM      1  C   UNL     1      -3.463  -6.623   0.000  0.00  0.00    +0.000 C 
ATOM      2  C   UNL     1      -2.250  -7.504   0.000  0.00  0.00    +0.000 C 
ATOM      3  C   UNL     1      -1.036  -6.623   0.000  0.00  0.00    +0.000 C 
ATOM      4  C   UNL     1      -1.500  -5.196   0.000  0.00  0.00    +0.000 C 
ATOM      5  C   UNL     1      -0.750  -3.897   0.000  0.00  0.00    +0.000 C 
ATOM      6  C   UNL     1       0.750  -3.897   0.000  0.00  0.00    +0.000 C 
ATOM      7  C   UNL     1       1.500  -2.598   0.000  0.00  0.00    +0.000 C 
ATOM      8  F   UNL     1       3.000  -2.598   0.000  0.00  0.00    +0.000 F 
ATOM      9  C   UNL     1       0.750  -1.299   0.000  0.00  0.00    +0.000 C 
ATOM     10  C   UNL     1       1.500   0.000   0.000  0.00  0.00    +0.000 C 
ATOM     11  C   UNL     1       0.750   1.299   0.000  0.00  0.00    +0.000 C 
ATOM     12  O   UNL     1       1.500   2.598   0.000  0.00  0.00    +0.000 OA
ATOM     13  C   UNL     1      -0.750   1.299   0.000  0.00  0.00    +0.000 C 
ATOM     14  C   UNL     1      -1.500   0.000   0.000  0.00  0.00    +0.000 C 
ATOM     15  C   UNL     1      -0.750  -1.299   0.000  0.00  0.00    +0.000 C 
ATOM     16  C   UNL     1      -2.250  -1.299   0.000  0.00  0.00    +0.000 C 
ATOM     17  C   UNL     1      -1.500  -2.598   0.000  0.00  0.00    +0.000 C 
ATOM     18  F   UNL     1      -2.250  -3.897   0.000  0.00  0.00    +0.000 F 
ATOM     19  C   UNL     1      -3.000  -2.598   0.000  0.00  0.00    +0.000 C 
ATOM     20  O   UNL     1      -3.750  -1.299   0.000  0.00  0.00    +0.000 OA
ATOM     21  C   UNL     1      -3.750  -3.897   0.000  0.00  0.00    +0.000 C 
ATOM     22  C   UNL     1      -3.000  -5.196   0.000  0.00  0.00    +0.000 C 
ATOM     23  C   UNL     1      -4.485  -4.987   0.000  0.00  0.00    +0.000 C 
ENDROOT
BRANCH   1  24
ATOM     24  C   UNL     1      -4.213  -7.922   0.000  0.00  0.00    +0.000 C 
ATOM     25  O   UNL     1      -5.093  -8.030   0.000  0.00  0.00    +0.000 OA
BRANCH  24  26
ATOM     26  C   UNL     1      -3.463  -9.221   0.000  0.00  0.00    +0.000 C 
BRANCH  26  27
ATOM     27  O   UNL     1      -4.213 -10.520   0.000  0.00  0.00    +0.000 OA
BRANCH  27  28
ATOM     28  C   UNL     1      -3.463 -11.819   0.000  0.00  0.00    +0.000 C 
ATOM     29  C   UNL     1      -4.213 -13.118   0.000  0.00  0.00    +0.000 C 
ATOM     30  O   UNL     1      -1.964 -11.819   0.000  0.00  0.00    +0.000 OA
ENDBRANCH  27  28
ENDBRANCH  26  27
ENDBRANCH  24  26
ENDBRANCH   1  24
BRANCH   1  31
ATOM     31  O   UNL     1      -4.834  -6.013   0.000  0.00  0.00    +0.000 OA
BRANCH  31  32
ATOM     32  C   UNL     1      -6.047  -6.894   0.000  0.00  0.00    +0.000 C 
ATOM     33  O   UNL     1      -6.063  -7.780   0.000  0.00  0.00    +0.000 OA
BRANCH  32  34
ATOM     34  C   UNL     1      -7.418  -6.284   0.000  0.00  0.00    +0.000 C 
BRANCH  34  36
ATOM     35  C   UNL     1     -10.002  -6.556   0.000  0.00  0.00    +0.000 C 
ATOM     36  C   UNL     1      -8.631  -7.166   0.000  0.00  0.00    +0.000 C 
ENDBRANCH  34  36
ENDBRANCH  32  34
ENDBRANCH  31  32
ENDBRANCH   1  31
TORSDOF 8
