REMARK  Name = 
REMARK  4 active torsions:
REMARK  status: ('A' for Active; 'I' for Inactive)
REMARK    1  A    between atoms: C_7  and  C_8
REMARK    2  A    between atoms: C_8  and  C_9
REMARK    3  A    between atoms: C_9  and  N_10
REMARK    4  A    between atoms: C_21  and  S_22
REMARK                            x       y       z     vdW  Elec       q    Type
REMARK                         _______ _______ _______ _____ _____    ______ ____
ROOT
ATOM      1  N   UNL     1       1.500  -2.598   0.000  0.00  0.00    +0.000 N 
ATOM      2  C   UNL     1       0.750  -1.299   0.000  0.00  0.00    +0.000 A 
ATOM      3  C   UNL     1       1.500   0.000   0.000  0.00  0.00    +0.000 A 
ATOM      4  C   UNL     1       0.750   1.299   0.000  0.00  0.00    +0.000 A 
ATOM      5  C   UNL     1      -0.750   1.299   0.000  0.00  0.00    +0.000 A 
ATOM      6  C   UNL     1      -1.500   0.000   0.000  0.00  0.00    +0.000 A 
ATOM      7  C   UNL     1      -0.750  -1.299   0.000  0.00  0.00    +0.000 A 
ATOM      8  S   UNL     1      -1.500  -2.598   0.000  0.00  0.00    +0.000 S 
ATOM      9  C   UNL     1      -0.750  -3.897   0.000  0.00  0.00    +0.000 A 
ATOM     10  C   UNL     1      -1.500  -5.196   0.000  0.00  0.00    +0.000 A 
ATOM     11  C   UNL     1      -0.750  -6.495   0.000  0.00  0.00    +0.000 A 
ATOM     12  C   UNL     1       0.750  -6.495   0.000  0.00  0.00    +0.000 A 
ATOM     13  C   UNL     1       1.500  -5.196   0.000  0.00  0.00    +0.000 A 
ATOM     14  C   UNL     1       0.750  -3.897   0.000  0.00  0.00    +0.000 A 
ENDROOT
BRANCH  12  15
ATOM     15  S   UNL     1       1.500  -7.794   0.000  0.00  0.00    +0.000 S 
ATOM     16  C   UNL     1       0.750  -9.093   0.000  0.00  0.00    +0.000 C 
ATOM     17  O   UNL     1       3.000  -7.794   0.000  0.00  0.00    +0.000 OA
ENDBRANCH  12  15
BRANCH   1  18
ATOM     18  C   UNL     1       3.000  -2.598   0.000  0.00  0.00    +0.000 C 
BRANCH  18  19
ATOM     19  C   UNL     1       3.750  -3.897   0.000  0.00  0.00    +0.000 C 
BRANCH  19  26
ATOM     20  C   UNL     1       5.250  -1.299   0.000  0.00  0.00    +0.000 C 
ATOM     21  N   UNL     1       6.000  -2.598   0.000  0.00  0.00    +0.000 NA
ATOM     22  C   UNL     1       7.500  -2.598   0.000  0.00  0.00    +0.000 C 
ATOM     23  C   UNL     1       8.250  -3.897   0.000  0.00  0.00    +0.000 C 
ATOM     24  C   UNL     1       7.500  -5.196   0.000  0.00  0.00    +0.000 C 
ATOM     25  C   UNL     1       6.000  -5.196   0.000  0.00  0.00    +0.000 C 
ATOM     26  C   UNL     1       5.250  -3.897   0.000  0.00  0.00    +0.000 C 
ENDBRANCH  19  26
ENDBRANCH  18  19
ENDBRANCH   1  18
TORSDOF 4
