REMARK  Name = 
REMARK  0 active torsions:
REMARK  status: ('A' for Active; 'I' for Inactive)
REMARK                            x       y       z     vdW  Elec       q    Type
REMARK                         _______ _______ _______ _____ _____    ______ ____
ROOT
ATOM      1  S   UNL     1      -3.574   1.290   0.000  0.00  0.00    +0.000 S 
ATOM      2  C   UNL     1      -2.147   1.754   0.000  0.00  0.00    +0.000 A 
ATOM      3  N   UNL     1      -1.835   3.221   0.000  0.00  0.00    +0.000 NA
ATOM      4  C   UNL     1      -0.409   3.684   0.000  0.00  0.00    +0.000 A 
ATOM      5  N   UNL     1       0.706   2.681   0.000  0.00  0.00    +0.000 NA
ATOM      6  C   UNL     1       0.394   1.214   0.000  0.00  0.00    +0.000 A 
ATOM      7  N   UNL     1       1.276   0.000   0.000  0.00  0.00    +0.000 NA
ATOM      8  C   UNL     1       0.394  -1.214   0.000  0.00  0.00    +0.000 A 
ATOM      9  N   UNL     1      -1.032  -0.750   0.000  0.00  0.00    +0.000 NA
ATOM     10  C   UNL     1      -1.032   0.750   0.000  0.00  0.00    +0.000 A 
ENDROOT
TORSDOF 0
