REMARK  Name = 
REMARK  11 active torsions:
REMARK  status: ('A' for Active; 'I' for Inactive)
REMARK    1  A    between atoms: C_2  and  C_3
REMARK    2  A    between atoms: C_3  and  C_4
REMARK    3  A    between atoms: C_4  and  N_5
REMARK    4  A    between atoms: N_5  and  C_6
REMARK    5  A    between atoms: N_5  and  C_10
REMARK    6  A    between atoms: C_6  and  C_7
REMARK    7  A    between atoms: C_7  and  C_8
REMARK    8  A    between atoms: C_10  and  C_11
REMARK    9  A    between atoms: C_11  and  C_12
REMARK   10  A    between atoms: C_12  and  C_14
REMARK   11  A    between atoms: C_26  and  C_27
REMARK                            x       y       z     vdW  Elec       q    Type
REMARK                         _______ _______ _______ _____ _____    ______ ____
ROOT
ATOM      1  C   UNL     1      -1.500  -2.598   0.000  0.00  0.00    +0.000 A 
ATOM      2  C   UNL     1      -0.750  -3.897   0.000  0.00  0.00    +0.000 A 
ATOM      3  C   UNL     1       0.750  -3.897   0.000  0.00  0.00    +0.000 A 
ATOM      4  C   UNL     1       1.500  -5.196   0.000  0.00  0.00    +0.000 A 
ATOM      5 CL   UNL     1       0.750  -6.495   0.000  0.00  0.00    +0.000 Cl
ATOM      6  C   UNL     1       3.000  -5.196   0.000  0.00  0.00    +0.000 A 
ATOM      7  C   UNL     1       3.750  -3.897   0.000  0.00  0.00    +0.000 A 
ATOM      8 CL   UNL     1       5.250  -3.897   0.000  0.00  0.00    +0.000 Cl
ATOM      9  C   UNL     1       3.000  -2.598   0.000  0.00  0.00    +0.000 A 
ATOM     10  C   UNL     1       1.500  -2.598   0.000  0.00  0.00    +0.000 A 
ATOM     11  C   UNL     1       0.750  -1.299   0.000  0.00  0.00    +0.000 A 
ATOM     12  C   UNL     1       1.500   0.000   0.000  0.00  0.00    +0.000 A 
ATOM     13  C   UNL     1       0.750   1.299   0.000  0.00  0.00    +0.000 A 
ATOM     14  C   UNL     1      -0.750   1.299   0.000  0.00  0.00    +0.000 A 
ATOM     15  C   UNL     1      -1.500   0.000   0.000  0.00  0.00    +0.000 A 
ATOM     16  C   UNL     1      -0.750  -1.299   0.000  0.00  0.00    +0.000 A 
ENDROOT
BRANCH  13  17
ATOM     17  C   UNL     1       1.500   2.598   0.000  0.00  0.00    +0.000 C 
ATOM     18  F   UNL     1       2.250   3.897   0.000  0.00  0.00    +0.000 F 
ATOM     19  F   UNL     1       2.799   1.848   0.000  0.00  0.00    +0.000 F 
ATOM     20  F   UNL     1       0.201   3.348   0.000  0.00  0.00    +0.000 F 
ENDBRANCH  13  17
BRANCH   1  21
ATOM     21  C   UNL     1      -3.000  -2.598   0.000  0.00  0.00    +0.000 C 
ATOM     22  O   UNL     1      -3.750  -1.299   0.000  0.00  0.00    +0.000 OA
BRANCH  21  23
ATOM     23  C   UNL     1      -3.750  -3.897   0.000  0.00  0.00    +0.000 C 
BRANCH  23  24
ATOM     24  C   UNL     1      -5.250  -3.897   0.000  0.00  0.00    +0.000 C 
BRANCH  24  25
ATOM     25  N   UNL     1      -6.000  -5.196   0.000  0.00  0.00    +0.000 NA
BRANCH  25  26
ATOM     26  C   UNL     1      -7.500  -5.196   0.000  0.00  0.00    +0.000 C 
BRANCH  26  27
ATOM     27  C   UNL     1      -8.250  -6.495   0.000  0.00  0.00    +0.000 C 
BRANCH  27  29
ATOM     28  C   UNL     1     -10.500  -7.794   0.000  0.00  0.00    +0.000 C 
ATOM     29  C   UNL     1      -9.750  -6.495   0.000  0.00  0.00    +0.000 C 
ENDBRANCH  27  29
ENDBRANCH  26  27
ENDBRANCH  25  26
BRANCH  25  30
ATOM     30  C   UNL     1      -5.250  -6.495   0.000  0.00  0.00    +0.000 C 
BRANCH  30  31
ATOM     31  C   UNL     1      -6.000  -7.794   0.000  0.00  0.00    +0.000 C 
BRANCH  31  32
ATOM     32  C   UNL     1      -5.250  -9.093   0.000  0.00  0.00    +0.000 C 
ATOM     33  C   UNL     1      -6.000 -10.392   0.000  0.00  0.00    +0.000 C 
ENDBRANCH  31  32
ENDBRANCH  30  31
ENDBRANCH  25  30
ENDBRANCH  24  25
ENDBRANCH  23  24
ENDBRANCH  21  23
ENDBRANCH   1  21
TORSDOF 11
