REMARK  Name = 
REMARK  5 active torsions:
REMARK  status: ('A' for Active; 'I' for Inactive)
REMARK    1  A    between atoms: C_2  and  C_3
REMARK    2  A    between atoms: C_3  and  N_4
REMARK    3  A    between atoms: N_4  and  C_5
REMARK    4  A    between atoms: C_5  and  C_7
REMARK    5  A    between atoms: N_9  and  C_10
REMARK                            x       y       z     vdW  Elec       q    Type
REMARK                         _______ _______ _______ _____ _____    ______ ____
ROOT
ATOM      1  C   UNL     1       3.750  -1.299   0.000  0.00  0.00    +0.000 C 
ATOM      2  O   UNL     1       3.000  -2.598   0.000  0.00  0.00    +0.000 OA
ATOM      3  N   UNL     1       3.000   0.000   0.000  0.00  0.00    +0.000 NA
ENDROOT
BRANCH   3   4
ATOM      4  C   UNL     1       1.500   0.000   0.000  0.00  0.00    +0.000 A 
ATOM      5  C   UNL     1       0.750  -1.299   0.000  0.00  0.00    +0.000 A 
ATOM      6  C   UNL     1      -0.750  -1.299   0.000  0.00  0.00    +0.000 A 
ATOM      7  C   UNL     1      -1.500   0.000   0.000  0.00  0.00    +0.000 A 
ATOM      8  C   UNL     1      -0.750   1.299   0.000  0.00  0.00    +0.000 A 
ATOM      9  C   UNL     1       0.750   1.299   0.000  0.00  0.00    +0.000 A 
ATOM     10  C   UNL     1       1.500   2.598   0.000  0.00  0.00    +0.000 C 
ENDBRANCH   3   4
BRANCH   1  11
ATOM     11  C   UNL     1       5.250  -1.299   0.000  0.00  0.00    +0.000 C 
ATOM     12  C   UNL     1       6.000  -2.598   0.000  0.00  0.00    +0.000 C 
BRANCH  11  13
ATOM     13  N   UNL     1       6.000   0.000   0.000  0.00  0.00    +0.000 NA
BRANCH  13  14
ATOM     14  C   UNL     1       7.500   0.000   0.000  0.00  0.00    +0.000 C 
BRANCH  14  16
ATOM     15  C   UNL     1       9.750   1.299   0.000  0.00  0.00    +0.000 C 
ATOM     16  C   UNL     1       8.250   1.299   0.000  0.00  0.00    +0.000 C 
ENDBRANCH  14  16
ENDBRANCH  13  14
ENDBRANCH  11  13
ENDBRANCH   1  11
TORSDOF 5
