REMARK  Name = 
REMARK  7 active torsions:
REMARK  status: ('A' for Active; 'I' for Inactive)
REMARK    1  A    between atoms: C_7  and  C_8
REMARK    2  A    between atoms: C_8  and  C_9
REMARK    3  A    between atoms: C_8  and  C_18
REMARK    4  A    between atoms: C_9  and  C_10
REMARK    5  A    between atoms: C_10  and  N_11
REMARK    6  A    between atoms: N_11  and  C_12
REMARK    7  A    between atoms: N_11  and  C_15
REMARK                            x       y       z     vdW  Elec       q    Type
REMARK                         _______ _______ _______ _____ _____    ______ ____
ROOT
ATOM      1  C   UNL     1      -1.500   2.598   0.000  0.00  0.00    +0.000 C 
ENDROOT
BRANCH   1   8
ATOM      2  C   UNL     1       3.000   0.000   0.000  0.00  0.00    +0.000 C 
ATOM      3  C   UNL     1       1.500   0.000   0.000  0.00  0.00    +0.000 A 
ATOM      4  C   UNL     1       0.750  -1.299   0.000  0.00  0.00    +0.000 A 
ATOM      5  C   UNL     1      -0.750  -1.299   0.000  0.00  0.00    +0.000 A 
ATOM      6  C   UNL     1      -1.500   0.000   0.000  0.00  0.00    +0.000 A 
ATOM      7  O   UNL     1      -3.000   0.000   0.000  0.00  0.00    +0.000 OA
ATOM      8  C   UNL     1      -0.750   1.299   0.000  0.00  0.00    +0.000 A 
ATOM      9  C   UNL     1       0.750   1.299   0.000  0.00  0.00    +0.000 A 
ENDBRANCH   1   8
BRANCH   1  10
ATOM     10  C   UNL     1      -3.000   2.598   0.000  0.00  0.00    +0.000 A 
ATOM     11  C   UNL     1      -3.750   3.897   0.000  0.00  0.00    +0.000 A 
ATOM     12  C   UNL     1      -5.250   3.897   0.000  0.00  0.00    +0.000 A 
ATOM     13  C   UNL     1      -6.000   2.598   0.000  0.00  0.00    +0.000 A 
ATOM     14  C   UNL     1      -5.250   1.299   0.000  0.00  0.00    +0.000 A 
ATOM     15  C   UNL     1      -3.750   1.299   0.000  0.00  0.00    +0.000 A 
ENDBRANCH   1  10
BRANCH   1  16
ATOM     16  C   UNL     1      -0.750   3.897   0.000  0.00  0.00    +0.000 C 
BRANCH  16  17
ATOM     17  C   UNL     1      -1.500   5.196   0.000  0.00  0.00    +0.000 C 
BRANCH  17  18
ATOM     18  N   UNL     1      -0.750   6.495   0.000  0.00  0.00    +0.000 NA
BRANCH  18  19
ATOM     19  C   UNL     1      -1.500   7.794   0.000  0.00  0.00    +0.000 C 
ATOM     20  C   UNL     1      -0.750   9.093   0.000  0.00  0.00    +0.000 C 
ATOM     21  C   UNL     1      -3.000   7.794   0.000  0.00  0.00    +0.000 C 
ENDBRANCH  18  19
BRANCH  18  22
ATOM     22  C   UNL     1       0.750   6.495   0.000  0.00  0.00    +0.000 C 
ATOM     23  C   UNL     1       1.500   7.794   0.000  0.00  0.00    +0.000 C 
ATOM     24  C   UNL     1       1.500   5.196   0.000  0.00  0.00    +0.000 C 
ENDBRANCH  18  22
ENDBRANCH  17  18
ENDBRANCH  16  17
ENDBRANCH   1  16
TORSDOF 7
