REMARK  Name = 
REMARK  1 active torsions:
REMARK  status: ('A' for Active; 'I' for Inactive)
REMARK    1  A    between atoms: O_2  and  C_3
REMARK                            x       y       z     vdW  Elec       q    Type
REMARK                         _______ _______ _______ _____ _____    ______ ____
ROOT
ATOM      1  C   UNL     1       3.750  -3.897   0.000  0.00  0.00    +0.000 A 
ATOM      2  C   UNL     1       3.000  -5.196   0.000  0.00  0.00    +0.000 A 
ATOM      3  C   UNL     1       1.500  -5.196   0.000  0.00  0.00    +0.000 A 
ATOM      4  C   UNL     1       0.750  -3.897   0.000  0.00  0.00    +0.000 A 
ATOM      5  C   UNL     1       1.500  -2.598   0.000  0.00  0.00    +0.000 A 
ATOM      6  C   UNL     1       3.000  -2.598   0.000  0.00  0.00    +0.000 A 
ATOM      7  C   UNL     1       0.750  -1.299   0.000  0.00  0.00    +0.000 C 
ATOM      8  C   UNL     1       1.500   0.000   0.000  0.00  0.00    +0.000 C 
ATOM      9  C   UNL     1       0.750   1.299   0.000  0.00  0.00    +0.000 C 
ATOM     10  C   UNL     1      -0.750   1.299   0.000  0.00  0.00    +0.000 C 
ATOM     11  C   UNL     1      -1.500   0.000   0.000  0.00  0.00    +0.000 C 
ATOM     12  C   UNL     1      -0.750  -1.299   0.000  0.00  0.00    +0.000 C 
ATOM     13  C   UNL     1      -1.500  -2.598   0.000  0.00  0.00    +0.000 C 
ATOM     14  C   UNL     1      -0.750  -3.897   0.000  0.00  0.00    +0.000 C 
ATOM     15  N   UNL     1      -0.665  -2.745   0.000  0.00  0.00    +0.000 NA
ATOM     16  C   UNL     1      -3.750  -1.299   0.000  0.00  0.00    +0.000 C 
ATOM     17  C   UNL     1      -0.450  -1.819   0.000  0.00  0.00    +0.000 C 
ATOM     18  C   UNL     1       0.460  -2.095   0.000  0.00  0.00    +0.000 C 
ENDROOT
BRANCH   1  20
ATOM     19  C   UNL     1       6.000  -5.196   0.000  0.00  0.00    +0.000 C 
ATOM     20  O   UNL     1       5.250  -3.897   0.000  0.00  0.00    +0.000 OA
ENDBRANCH   1  20
TORSDOF 1
