REMARK  Name = 
REMARK  2 active torsions:
REMARK  status: ('A' for Active; 'I' for Inactive)
REMARK    1  A    between atoms: C_6  and  C_7
REMARK    2  A    between atoms: C_7  and  C_8
REMARK                            x       y       z     vdW  Elec       q    Type
REMARK                         _______ _______ _______ _____ _____    ______ ____
ROOT
ATOM      1  C   UNL     1       1.500  -2.598   0.000  0.00  0.00    +0.000 C 
ATOM      2  C   UNL     1       0.750  -1.299   0.000  0.00  0.00    +0.000 A 
ATOM      3  C   UNL     1       1.500   0.000   0.000  0.00  0.00    +0.000 A 
ATOM      4  C   UNL     1       0.750   1.299   0.000  0.00  0.00    +0.000 A 
ATOM      5  C   UNL     1      -0.750   1.299   0.000  0.00  0.00    +0.000 A 
ATOM      6  C   UNL     1      -1.500   0.000   0.000  0.00  0.00    +0.000 A 
ATOM      7  C   UNL     1      -0.750  -1.299   0.000  0.00  0.00    +0.000 A 
ATOM      8  S   UNL     1      -1.500  -2.598   0.000  0.00  0.00    +0.000 S 
ATOM      9  C   UNL     1      -0.750  -3.897   0.000  0.00  0.00    +0.000 A 
ATOM     10  C   UNL     1      -1.500  -5.196   0.000  0.00  0.00    +0.000 A 
ATOM     11  C   UNL     1      -0.750  -6.495   0.000  0.00  0.00    +0.000 A 
ATOM     12  C   UNL     1       0.750  -6.495   0.000  0.00  0.00    +0.000 A 
ATOM     13  C   UNL     1       1.500  -5.196   0.000  0.00  0.00    +0.000 A 
ATOM     14  C   UNL     1       0.750  -3.897   0.000  0.00  0.00    +0.000 A 
ENDROOT
BRANCH   1  15
ATOM     15  C   UNL     1       3.000  -2.598   0.000  0.00  0.00    +0.000 C 
BRANCH  15  21
ATOM     16  C   UNL     1       7.500  -5.196   0.000  0.00  0.00    +0.000 C 
ATOM     17  N   UNL     1       6.000  -5.196   0.000  0.00  0.00    +0.000 NA
ATOM     18  C   UNL     1       5.250  -6.495   0.000  0.00  0.00    +0.000 C 
ATOM     19  C   UNL     1       3.750  -6.495   0.000  0.00  0.00    +0.000 C 
ATOM     20  C   UNL     1       3.000  -5.196   0.000  0.00  0.00    +0.000 C 
ATOM     21  C   UNL     1       3.750  -3.897   0.000  0.00  0.00    +0.000 C 
ATOM     22  C   UNL     1       5.250  -3.897   0.000  0.00  0.00    +0.000 C 
ENDBRANCH  15  21
ENDBRANCH   1  15
TORSDOF 2
