REMARK  Name = 
REMARK  5 active torsions:
REMARK  status: ('A' for Active; 'I' for Inactive)
REMARK    1  A    between atoms: C_2  and  C_3
REMARK    2  A    between atoms: C_2  and  C_17
REMARK    3  A    between atoms: C_4  and  C_5
REMARK    4  A    between atoms: C_5  and  C_6
REMARK    5  A    between atoms: C_6  and  N_7
REMARK                            x       y       z     vdW  Elec       q    Type
REMARK                         _______ _______ _______ _____ _____    ______ ____
ROOT
ATOM      1  C   UNL     1      -1.214  -2.726   0.000  0.00  0.00    +0.000 C 
ATOM      2  C   UNL     1       0.000  -3.607   0.000  0.00  0.00    +0.000 C 
ATOM      3  C   UNL     1       1.214  -2.726   0.000  0.00  0.00    +0.000 C 
ATOM      4  C   UNL     1       0.750  -1.299   0.000  0.00  0.00    +0.000 A 
ATOM      5  C   UNL     1       1.500   0.000   0.000  0.00  0.00    +0.000 A 
ATOM      6  C   UNL     1       0.750   1.299   0.000  0.00  0.00    +0.000 A 
ATOM      7  C   UNL     1      -0.750   1.299   0.000  0.00  0.00    +0.000 A 
ATOM      8  C   UNL     1      -1.500   0.000   0.000  0.00  0.00    +0.000 A 
ATOM      9  C   UNL     1      -0.750  -1.299   0.000  0.00  0.00    +0.000 A 
ENDROOT
BRANCH   1  11
ATOM     10  C   UNL     1      -2.952  -4.656   0.000  0.00  0.00    +0.000 C 
ATOM     11  C   UNL     1      -2.640  -3.189   0.000  0.00  0.00    +0.000 C 
BRANCH  11  12
ATOM     12  C   UNL     1      -3.755  -2.186   0.000  0.00  0.00    +0.000 A 
ATOM     13  C   UNL     1      -3.443  -0.718   0.000  0.00  0.00    +0.000 A 
ATOM     14  C   UNL     1      -4.558   0.285   0.000  0.00  0.00    +0.000 A 
ATOM     15  C   UNL     1      -5.984  -0.178   0.000  0.00  0.00    +0.000 A 
ATOM     16  C   UNL     1      -6.296  -1.645   0.000  0.00  0.00    +0.000 A 
ATOM     17  N   UNL     1      -5.181  -2.649   0.000  0.00  0.00    +0.000 NA
ENDBRANCH  11  12
ENDBRANCH   1  11
BRANCH   2  18
ATOM     18  C   UNL     1       0.000  -5.107   0.000  0.00  0.00    +0.000 C 
BRANCH  18  19
ATOM     19  C   UNL     1      -1.299  -5.857   0.000  0.00  0.00    +0.000 C 
BRANCH  19  20
ATOM     20  N   UNL     1      -1.299  -7.357   0.000  0.00  0.00    +0.000 NA
ATOM     21  C   UNL     1      -2.598  -8.107   0.000  0.00  0.00    +0.000 C 
ATOM     22  C   UNL     1       0.000  -8.107   0.000  0.00  0.00    +0.000 C 
ENDBRANCH  19  20
ENDBRANCH  18  19
ENDBRANCH   2  18
TORSDOF 5
