MODEL 1
REMARK VINA RESULT:      -6.7      0.000      0.000
REMARK  Name = 
REMARK  8 active torsions:
REMARK  status: ('A' for Active; 'I' for Inactive)
REMARK    1  A    between atoms: C_2  and  C_3
REMARK    2  A    between atoms: C_3  and  C_4
REMARK    3  A    between atoms: C_4  and  O_6
REMARK    4  A    between atoms: O_6  and  C_7
REMARK    5  A    between atoms: C_7  and  C_8
REMARK    6  A    between atoms: C_8  and  C_10
REMARK    7  A    between atoms: C_10  and  O_11
REMARK    8  A    between atoms: O_11  and  C_12
REMARK                            x       y       z     vdW  Elec       q    Type
REMARK                         _______ _______ _______ _____ _____    ______ ____
ROOT
ATOM      1  C   UNL     1     -11.657  16.785  -4.944  0.00  0.00    +0.000 C 
ATOM      2  C   UNL     1     -10.414  16.310  -5.634  0.00  0.00    +0.000 C 
ATOM      3  C   UNL     1     -10.813  15.301  -6.670  0.00  0.00    +0.000 C 
ATOM      4  C   UNL     1     -12.306  15.152  -6.619  0.00  0.00    +0.000 C 
ATOM      5  C   UNL     1     -13.256  14.300  -7.406  0.00  0.00    +0.000 C 
ATOM      6  C   UNL     1     -12.735  13.383  -8.473  0.00  0.00    +0.000 C 
ATOM      7  C   UNL     1     -13.686  12.531  -9.260  0.00  0.00    +0.000 C 
ATOM      8  F   UNL     1     -13.164  11.614 -10.327  0.00  0.00    +0.000 F 
ATOM      9  C   UNL     1     -15.158  12.596  -8.981  0.00  0.00    +0.000 C 
ATOM     10  C   UNL     1     -16.109  11.744  -9.768  0.00  0.00    +0.000 C 
ATOM     11  C   UNL     1     -17.581  11.809  -9.489  0.00  0.00    +0.000 C 
ATOM     12  O   UNL     1     -18.532  10.957 -10.277  0.00  0.00    +0.000 OA
ATOM     13  C   UNL     1     -18.103  12.726  -8.423  0.00  0.00    +0.000 C 
ATOM     14  C   UNL     1     -17.152  13.578  -7.636  0.00  0.00    +0.000 C 
ATOM     15  C   UNL     1     -15.680  13.513  -7.915  0.00  0.00    +0.000 C 
ATOM     16  C   UNL     1     -16.201  14.430  -6.848  0.00  0.00    +0.000 C 
ATOM     17  C   UNL     1     -14.729  14.365  -7.127  0.00  0.00    +0.000 C 
ATOM     18  F   UNL     1     -13.778  15.217  -6.340  0.00  0.00    +0.000 F 
ATOM     19  C   UNL     1     -15.250  15.282  -6.061  0.00  0.00    +0.000 C 
ATOM     20  O   UNL     1     -16.723  15.347  -5.782  0.00  0.00    +0.000 OA
ATOM     21  C   UNL     1     -14.300  16.134  -5.274  0.00  0.00    +0.000 C 
ATOM     22  C   UNL     1     -12.827  16.069  -5.553  0.00  0.00    +0.000 C 
ATOM     23  C   UNL     1     -13.539  16.914  -4.538  0.00  0.00    +0.000 C 
ENDROOT
BRANCH   1  24
ATOM     24  C   UNL     1     -10.707  17.637  -4.157  0.00  0.00    +0.000 C 
ATOM     25  O   UNL     1     -10.731  18.518  -4.064  0.00  0.00    +0.000 OA
BRANCH  24  26
ATOM     26  C   UNL     1      -9.565  17.002  -3.419  0.00  0.00    +0.000 C 
BRANCH  26  27
ATOM     27  O   UNL     1      -9.148  17.535  -2.081  0.00  0.00    +0.000 OA
BRANCH  27  28
ATOM     28  C   UNL     1      -8.989  16.601  -0.918  0.00  0.00    +0.000 C 
ATOM     29  C   UNL     1      -7.623  16.129  -0.516  0.00  0.00    +0.000 C 
ATOM     30  O   UNL     1     -10.196  16.139  -0.157  0.00  0.00    +0.000 OA
ENDBRANCH  27  28
ENDBRANCH  26  27
ENDBRANCH  24  26
ENDBRANCH   1  24
BRANCH   1  31
ATOM     31  O   UNL     1     -12.703  17.438  -4.089  0.00  0.00    +0.000 OA
BRANCH  31  32
ATOM     32  C   UNL     1     -13.072  16.838  -2.765  0.00  0.00    +0.000 C 
ATOM     33  O   UNL     1     -12.672  16.161  -2.357  0.00  0.00    +0.000 OA
BRANCH  32  34
ATOM     34  C   UNL     1     -14.231  17.388  -1.988  0.00  0.00    +0.000 C 
BRANCH  34  36
ATOM     35  C   UNL     1     -12.848  19.515  -1.424  0.00  0.00    +0.000 C 
ATOM     36  C   UNL     1     -14.100  18.701  -1.274  0.00  0.00    +0.000 C 
ENDBRANCH  34  36
ENDBRANCH  32  34
ENDBRANCH  31  32
ENDBRANCH   1  31
TORSDOF 8
ENDMDL
MODEL 2
REMARK VINA RESULT:      -6.7      3.659      8.814
REMARK  Name = 
REMARK  8 active torsions:
REMARK  status: ('A' for Active; 'I' for Inactive)
REMARK    1  A    between atoms: C_2  and  C_3
REMARK    2  A    between atoms: C_3  and  C_4
REMARK    3  A    between atoms: C_4  and  O_6
REMARK    4  A    between atoms: O_6  and  C_7
REMARK    5  A    between atoms: C_7  and  C_8
REMARK    6  A    between atoms: C_8  and  C_10
REMARK    7  A    between atoms: C_10  and  O_11
REMARK    8  A    between atoms: O_11  and  C_12
REMARK                            x       y       z     vdW  Elec       q    Type
REMARK                         _______ _______ _______ _____ _____    ______ ____
ROOT
ATOM      1  C   UNL     1     -12.434  16.244  -6.320  0.00  0.00    +0.000 C 
ATOM      2  C   UNL     1     -12.699  16.892  -4.994  0.00  0.00    +0.000 C 
ATOM      3  C   UNL     1     -11.395  17.001  -4.261  0.00  0.00    +0.000 C 
ATOM      4  C   UNL     1     -10.323  16.419  -5.135  0.00  0.00    +0.000 C 
ATOM      5  C   UNL     1      -8.846  16.255  -4.936  0.00  0.00    +0.000 C 
ATOM      6  C   UNL     1      -8.204  16.724  -3.664  0.00  0.00    +0.000 C 
ATOM      7  C   UNL     1      -6.726  16.560  -3.465  0.00  0.00    +0.000 C 
ATOM      8  F   UNL     1      -6.084  17.028  -2.193  0.00  0.00    +0.000 F 
ATOM      9  C   UNL     1      -5.890  15.928  -4.539  0.00  0.00    +0.000 C 
ATOM     10  C   UNL     1      -4.413  15.764  -4.340  0.00  0.00    +0.000 C 
ATOM     11  C   UNL     1      -3.577  15.132  -5.413  0.00  0.00    +0.000 C 
ATOM     12  O   UNL     1      -2.099  14.968  -5.215  0.00  0.00    +0.000 OA
ATOM     13  C   UNL     1      -4.219  14.663  -6.686  0.00  0.00    +0.000 C 
ATOM     14  C   UNL     1      -5.697  14.827  -6.884  0.00  0.00    +0.000 C 
ATOM     15  C   UNL     1      -6.532  15.459  -5.811  0.00  0.00    +0.000 C 
ATOM     16  C   UNL     1      -7.174  14.991  -7.083  0.00  0.00    +0.000 C 
ATOM     17  C   UNL     1      -8.010  15.623  -6.010  0.00  0.00    +0.000 C 
ATOM     18  F   UNL     1      -9.488  15.787  -6.209  0.00  0.00    +0.000 F 
ATOM     19  C   UNL     1      -8.652  15.155  -7.282  0.00  0.00    +0.000 C 
ATOM     20  O   UNL     1      -7.817  14.523  -8.355  0.00  0.00    +0.000 OA
ATOM     21  C   UNL     1     -10.130  15.319  -7.481  0.00  0.00    +0.000 C 
ATOM     22  C   UNL     1     -10.965  15.951  -6.407  0.00  0.00    +0.000 C 
ATOM     23  C   UNL     1     -11.415  15.423  -7.737  0.00  0.00    +0.000 C 
ENDROOT
BRANCH   1  24
ATOM     24  C   UNL     1     -13.912  16.407  -6.519  0.00  0.00    +0.000 C 
ATOM     25  O   UNL     1     -14.316  16.905  -7.131  0.00  0.00    +0.000 OA
BRANCH  24  26
ATOM     26  C   UNL     1     -14.874  15.683  -5.624  0.00  0.00    +0.000 C 
BRANCH  26  27
ATOM     27  O   UNL     1     -16.169  15.168  -6.177  0.00  0.00    +0.000 OA
BRANCH  27  28
ATOM     28  C   UNL     1     -16.277  13.742  -6.630  0.00  0.00    +0.000 C 
ATOM     29  C   UNL     1     -17.249  13.369  -7.710  0.00  0.00    +0.000 C 
ATOM     30  O   UNL     1     -15.413  12.689  -6.003  0.00  0.00    +0.000 OA
ENDBRANCH  27  28
ENDBRANCH  26  27
ENDBRANCH  24  26
ENDBRANCH   1  24
BRANCH   1  31
ATOM     31  O   UNL     1     -12.478  15.629  -7.688  0.00  0.00    +0.000 OA
BRANCH  31  32
ATOM     32  C   UNL     1     -12.741  14.161  -7.843  0.00  0.00    +0.000 C 
ATOM     33  O   UNL     1     -12.581  13.524  -7.247  0.00  0.00    +0.000 OA
BRANCH  32  34
ATOM     34  C   UNL     1     -13.339  13.635  -9.114  0.00  0.00    +0.000 C 
BRANCH  34  36
ATOM     35  C   UNL     1     -14.795  11.651  -9.949  0.00  0.00    +0.000 C 
ATOM     36  C   UNL     1     -13.545  12.160  -9.293  0.00  0.00    +0.000 C 
ENDBRANCH  34  36
ENDBRANCH  32  34
ENDBRANCH  31  32
ENDBRANCH   1  31
TORSDOF 8
ENDMDL
MODEL 3
REMARK VINA RESULT:      -6.5      1.968      4.124
REMARK  Name = 
REMARK  8 active torsions:
REMARK  status: ('A' for Active; 'I' for Inactive)
REMARK    1  A    between atoms: C_2  and  C_3
REMARK    2  A    between atoms: C_3  and  C_4
REMARK    3  A    between atoms: C_4  and  O_6
REMARK    4  A    between atoms: O_6  and  C_7
REMARK    5  A    between atoms: C_7  and  C_8
REMARK    6  A    between atoms: C_8  and  C_10
REMARK    7  A    between atoms: C_10  and  O_11
REMARK    8  A    between atoms: O_11  and  C_12
REMARK                            x       y       z     vdW  Elec       q    Type
REMARK                         _______ _______ _______ _____ _____    ______ ____
ROOT
ATOM      1  C   UNL     1     -11.812  16.502  -5.360  0.00  0.00    +0.000 C 
ATOM      2  C   UNL     1     -12.798  17.334  -4.596  0.00  0.00    +0.000 C 
ATOM      3  C   UNL     1     -14.177  16.869  -4.958  0.00  0.00    +0.000 C 
ATOM      4  C   UNL     1     -14.043  15.749  -5.947  0.00  0.00    +0.000 C 
ATOM      5  C   UNL     1     -15.064  14.907  -6.654  0.00  0.00    +0.000 C 
ATOM      6  C   UNL     1     -16.525  15.134  -6.405  0.00  0.00    +0.000 C 
ATOM      7  C   UNL     1     -17.546  14.291  -7.111  0.00  0.00    +0.000 C 
ATOM      8  F   UNL     1     -19.008  14.518  -6.863  0.00  0.00    +0.000 F 
ATOM      9  C   UNL     1     -17.105  13.222  -8.067  0.00  0.00    +0.000 C 
ATOM     10  C   UNL     1     -18.125  12.380  -8.773  0.00  0.00    +0.000 C 
ATOM     11  C   UNL     1     -17.684  11.311  -9.729  0.00  0.00    +0.000 C 
ATOM     12  O   UNL     1     -18.704  10.469 -10.435  0.00  0.00    +0.000 OA
ATOM     13  C   UNL     1     -16.222  11.085  -9.978  0.00  0.00    +0.000 C 
ATOM     14  C   UNL     1     -15.202  11.927  -9.271  0.00  0.00    +0.000 C 
ATOM     15  C   UNL     1     -15.643  12.996  -8.316  0.00  0.00    +0.000 C 
ATOM     16  C   UNL     1     -14.181  12.769  -8.565  0.00  0.00    +0.000 C 
ATOM     17  C   UNL     1     -14.622  13.838  -7.609  0.00  0.00    +0.000 C 
ATOM     18  F   UNL     1     -13.602  14.680  -6.903  0.00  0.00    +0.000 F 
ATOM     19  C   UNL     1     -13.161  13.611  -7.858  0.00  0.00    +0.000 C 
ATOM     20  O   UNL     1     -12.719  12.543  -8.814  0.00  0.00    +0.000 OA
ATOM     21  C   UNL     1     -12.140  14.454  -7.152  0.00  0.00    +0.000 C 
ATOM     22  C   UNL     1     -12.581  15.522  -6.196  0.00  0.00    +0.000 C 
ATOM     23  C   UNL     1     -11.181  15.144  -6.577  0.00  0.00    +0.000 C 
ENDROOT
BRANCH   1  24
ATOM     24  C   UNL     1     -10.791  17.344  -4.654  0.00  0.00    +0.000 C 
ATOM     25  O   UNL     1     -10.689  18.223  -4.716  0.00  0.00    +0.000 OA
BRANCH  24  26
ATOM     26  C   UNL     1      -9.802  16.703  -3.726  0.00  0.00    +0.000 C 
BRANCH  26  27
ATOM     27  O   UNL     1     -10.016  16.766  -2.243  0.00  0.00    +0.000 OA
BRANCH  27  28
ATOM     28  C   UNL     1      -8.839  16.737  -1.314  0.00  0.00    +0.000 C 
ATOM     29  C   UNL     1      -9.041  16.936   0.159  0.00  0.00    +0.000 C 
ATOM     30  O   UNL     1      -7.461  16.509  -1.857  0.00  0.00    +0.000 OA
ENDBRANCH  27  28
ENDBRANCH  26  27
ENDBRANCH  24  26
ENDBRANCH   1  24
BRANCH   1  31
ATOM     31  O   UNL     1     -10.612  15.846  -5.978  0.00  0.00    +0.000 OA
BRANCH  31  32
ATOM     32  C   UNL     1     -10.032  16.389  -7.250  0.00  0.00    +0.000 C 
ATOM     33  O   UNL     1     -10.354  17.051  -7.743  0.00  0.00    +0.000 OA
BRANCH  32  34
ATOM     34  C   UNL     1      -8.772  15.798  -7.813  0.00  0.00    +0.000 C 
BRANCH  34  36
ATOM     35  C   UNL     1      -9.354  14.397  -9.922  0.00  0.00    +0.000 C 
ATOM     36  C   UNL     1      -8.650  15.561  -9.288  0.00  0.00    +0.000 C 
ENDBRANCH  34  36
ENDBRANCH  32  34
ENDBRANCH  31  32
ENDBRANCH   1  31
TORSDOF 8
ENDMDL
MODEL 4
REMARK VINA RESULT:      -6.4      1.747      3.033
REMARK  Name = 
REMARK  8 active torsions:
REMARK  status: ('A' for Active; 'I' for Inactive)
REMARK    1  A    between atoms: C_2  and  C_3
REMARK    2  A    between atoms: C_3  and  C_4
REMARK    3  A    between atoms: C_4  and  O_6
REMARK    4  A    between atoms: O_6  and  C_7
REMARK    5  A    between atoms: C_7  and  C_8
REMARK    6  A    between atoms: C_8  and  C_10
REMARK    7  A    between atoms: C_10  and  O_11
REMARK    8  A    between atoms: O_11  and  C_12
REMARK                            x       y       z     vdW  Elec       q    Type
REMARK                         _______ _______ _______ _____ _____    ______ ____
ROOT
ATOM      1  C   UNL     1     -13.612  15.830  -5.231  0.00  0.00    +0.000 C 
ATOM      2  C   UNL     1     -12.432  15.073  -5.762  0.00  0.00    +0.000 C 
ATOM      3  C   UNL     1     -12.936  14.050  -6.736  0.00  0.00    +0.000 C 
ATOM      4  C   UNL     1     -14.429  14.176  -6.808  0.00  0.00    +0.000 C 
ATOM      5  C   UNL     1     -15.462  13.430  -7.600  0.00  0.00    +0.000 C 
ATOM      6  C   UNL     1     -15.044  12.330  -8.530  0.00  0.00    +0.000 C 
ATOM      7  C   UNL     1     -16.076  11.584  -9.322  0.00  0.00    +0.000 C 
ATOM      8  F   UNL     1     -15.658  10.484 -10.252  0.00  0.00    +0.000 F 
ATOM      9  C   UNL     1     -17.527  11.939  -9.184  0.00  0.00    +0.000 C 
ATOM     10  C   UNL     1     -18.560  11.193  -9.976  0.00  0.00    +0.000 C 
ATOM     11  C   UNL     1     -20.011  11.547  -9.838  0.00  0.00    +0.000 C 
ATOM     12  O   UNL     1     -21.044  10.802 -10.630  0.00  0.00    +0.000 OA
ATOM     13  C   UNL     1     -20.429  12.647  -8.908  0.00  0.00    +0.000 C 
ATOM     14  C   UNL     1     -19.397  13.393  -8.116  0.00  0.00    +0.000 C 
ATOM     15  C   UNL     1     -17.946  13.039  -8.254  0.00  0.00    +0.000 C 
ATOM     16  C   UNL     1     -18.364  14.139  -7.324  0.00  0.00    +0.000 C 
ATOM     17  C   UNL     1     -16.913  13.784  -7.462  0.00  0.00    +0.000 C 
ATOM     18  F   UNL     1     -15.880  14.530  -6.670  0.00  0.00    +0.000 F 
ATOM     19  C   UNL     1     -17.331  14.884  -6.532  0.00  0.00    +0.000 C 
ATOM     20  O   UNL     1     -18.782  15.239  -6.393  0.00  0.00    +0.000 OA
ATOM     21  C   UNL     1     -16.298  15.630  -5.739  0.00  0.00    +0.000 C 
ATOM     22  C   UNL     1     -14.847  15.276  -5.878  0.00  0.00    +0.000 C 
ATOM     23  C   UNL     1     -15.461  16.333  -5.009  0.00  0.00    +0.000 C 
ENDROOT
BRANCH   1  24
ATOM     24  C   UNL     1     -12.580  16.576  -4.439  0.00  0.00    +0.000 C 
ATOM     25  O   UNL     1     -11.902  17.049  -4.759  0.00  0.00    +0.000 OA
BRANCH  24  26
ATOM     26  C   UNL     1     -12.633  16.566  -2.940  0.00  0.00    +0.000 C 
BRANCH  26  27
ATOM     27  O   UNL     1     -11.681  17.415  -2.150  0.00  0.00    +0.000 OA
BRANCH  27  28
ATOM     28  C   UNL     1     -10.355  16.858  -1.725  0.00  0.00    +0.000 C 
ATOM     29  C   UNL     1     -10.162  16.370  -0.320  0.00  0.00    +0.000 C 
ATOM     30  O   UNL     1      -9.223  16.789  -2.705  0.00  0.00    +0.000 OA
ENDBRANCH  27  28
ENDBRANCH  26  27
ENDBRANCH  24  26
ENDBRANCH   1  24
BRANCH   1  31
ATOM     31  O   UNL     1     -14.578  16.744  -4.535  0.00  0.00    +0.000 OA
BRANCH  31  32
ATOM     32  C   UNL     1     -14.976  18.041  -5.172  0.00  0.00    +0.000 C 
ATOM     33  O   UNL     1     -15.568  18.625  -4.867  0.00  0.00    +0.000 OA
BRANCH  32  34
ATOM     34  C   UNL     1     -14.348  18.465  -6.467  0.00  0.00    +0.000 C 
BRANCH  34  36
ATOM     35  C   UNL     1     -15.587  17.663  -8.606  0.00  0.00    +0.000 C 
ATOM     36  C   UNL     1     -15.211  18.763  -7.657  0.00  0.00    +0.000 C 
ENDBRANCH  34  36
ENDBRANCH  32  34
ENDBRANCH  31  32
ENDBRANCH   1  31
TORSDOF 8
ENDMDL
MODEL 5
REMARK VINA RESULT:      -6.4      3.037      4.907
REMARK  Name = 
REMARK  8 active torsions:
REMARK  status: ('A' for Active; 'I' for Inactive)
REMARK    1  A    between atoms: C_2  and  C_3
REMARK    2  A    between atoms: C_3  and  C_4
REMARK    3  A    between atoms: C_4  and  O_6
REMARK    4  A    between atoms: O_6  and  C_7
REMARK    5  A    between atoms: C_7  and  C_8
REMARK    6  A    between atoms: C_8  and  C_10
REMARK    7  A    between atoms: C_10  and  O_11
REMARK    8  A    between atoms: O_11  and  C_12
REMARK                            x       y       z     vdW  Elec       q    Type
REMARK                         _______ _______ _______ _____ _____    ______ ____
ROOT
ATOM      1  C   UNL     1     -14.098  13.690  -7.291  0.00  0.00    +0.000 C 
ATOM      2  C   UNL     1     -13.477  12.755  -8.285  0.00  0.00    +0.000 C 
ATOM      3  C   UNL     1     -14.583  12.092  -9.052  0.00  0.00    +0.000 C 
ATOM      4  C   UNL     1     -15.888  12.619  -8.531  0.00  0.00    +0.000 C 
ATOM      5  C   UNL     1     -17.310  12.326  -8.908  0.00  0.00    +0.000 C 
ATOM      6  C   UNL     1     -17.609  11.338  -9.996  0.00  0.00    +0.000 C 
ATOM      7  C   UNL     1     -19.032  11.046 -10.373  0.00  0.00    +0.000 C 
ATOM      8  F   UNL     1     -19.331  10.058 -11.461  0.00  0.00    +0.000 F 
ATOM      9  C   UNL     1     -20.154  11.741  -9.661  0.00  0.00    +0.000 C 
ATOM     10  C   UNL     1     -21.576  11.449 -10.038  0.00  0.00    +0.000 C 
ATOM     11  C   UNL     1     -22.699  12.144  -9.326  0.00  0.00    +0.000 C 
ATOM     12  O   UNL     1     -24.121  11.851  -9.703  0.00  0.00    +0.000 OA
ATOM     13  C   UNL     1     -22.399  13.132  -8.238  0.00  0.00    +0.000 C 
ATOM     14  C   UNL     1     -20.977  13.424  -7.861  0.00  0.00    +0.000 C 
ATOM     15  C   UNL     1     -19.854  12.729  -8.573  0.00  0.00    +0.000 C 
ATOM     16  C   UNL     1     -19.555  13.717  -7.484  0.00  0.00    +0.000 C 
ATOM     17  C   UNL     1     -18.432  13.021  -8.196  0.00  0.00    +0.000 C 
ATOM     18  F   UNL     1     -17.010  13.314  -7.820  0.00  0.00    +0.000 F 
ATOM     19  C   UNL     1     -18.133  14.009  -7.108  0.00  0.00    +0.000 C 
ATOM     20  O   UNL     1     -19.255  14.705  -6.396  0.00  0.00    +0.000 OA
ATOM     21  C   UNL     1     -16.710  14.302  -6.731  0.00  0.00    +0.000 C 
ATOM     22  C   UNL     1     -15.588  13.607  -7.443  0.00  0.00    +0.000 C 
ATOM     23  C   UNL     1     -15.496  14.617  -6.339  0.00  0.00    +0.000 C 
ENDROOT
BRANCH   1  24
ATOM     24  C   UNL     1     -12.676  13.983  -6.915  0.00  0.00    +0.000 C 
ATOM     25  O   UNL     1     -12.289  13.830  -6.132  0.00  0.00    +0.000 OA
BRANCH  24  26
ATOM     26  C   UNL     1     -11.746  14.600  -7.917  0.00  0.00    +0.000 C 
BRANCH  26  27
ATOM     27  O   UNL     1     -10.876  15.756  -7.521  0.00  0.00    +0.000 OA
BRANCH  27  28
ATOM     28  C   UNL     1      -9.409  15.546  -7.292  0.00  0.00    +0.000 C 
ATOM     29  C   UNL     1      -8.912  15.136  -5.938  0.00  0.00    +0.000 C 
ATOM     30  O   UNL     1      -8.439  15.747  -8.417  0.00  0.00    +0.000 OA
ENDBRANCH  27  28
ENDBRANCH  26  27
ENDBRANCH  24  26
ENDBRANCH   1  24
BRANCH   1  31
ATOM     31  O   UNL     1     -14.421  14.688  -6.218  0.00  0.00    +0.000 OA
BRANCH  31  32
ATOM     32  C   UNL     1     -14.472  16.150  -6.543  0.00  0.00    +0.000 C 
ATOM     33  O   UNL     1     -14.521  16.516  -7.349  0.00  0.00    +0.000 OA
BRANCH  32  34
ATOM     34  C   UNL     1     -14.439  17.167  -5.440  0.00  0.00    +0.000 C 
BRANCH  34  36
ATOM     35  C   UNL     1     -12.040  16.979  -4.461  0.00  0.00    +0.000 C 
ATOM     36  C   UNL     1     -13.527  16.970  -4.266  0.00  0.00    +0.000 C 
ENDBRANCH  34  36
ENDBRANCH  32  34
ENDBRANCH  31  32
ENDBRANCH   1  31
TORSDOF 8
ENDMDL
MODEL 6
REMARK VINA RESULT:      -6.3      4.751      9.897
REMARK  Name = 
REMARK  8 active torsions:
REMARK  status: ('A' for Active; 'I' for Inactive)
REMARK    1  A    between atoms: C_2  and  C_3
REMARK    2  A    between atoms: C_3  and  C_4
REMARK    3  A    between atoms: C_4  and  O_6
REMARK    4  A    between atoms: O_6  and  C_7
REMARK    5  A    between atoms: C_7  and  C_8
REMARK    6  A    between atoms: C_8  and  C_10
REMARK    7  A    between atoms: C_10  and  O_11
REMARK    8  A    between atoms: O_11  and  C_12
REMARK                            x       y       z     vdW  Elec       q    Type
REMARK                         _______ _______ _______ _____ _____    ______ ____
ROOT
ATOM      1  C   UNL     1     -10.366  16.233  -5.662  0.00  0.00    +0.000 C 
ATOM      2  C   UNL     1     -10.652  17.037  -4.429  0.00  0.00    +0.000 C 
ATOM      3  C   UNL     1      -9.366  17.211  -3.678  0.00  0.00    +0.000 C 
ATOM      4  C   UNL     1      -8.283  16.513  -4.448  0.00  0.00    +0.000 C 
ATOM      5  C   UNL     1      -6.814  16.349  -4.191  0.00  0.00    +0.000 C 
ATOM      6  C   UNL     1      -6.196  16.954  -2.965  0.00  0.00    +0.000 C 
ATOM      7  C   UNL     1      -4.727  16.790  -2.708  0.00  0.00    +0.000 C 
ATOM      8  F   UNL     1      -4.109  17.394  -1.483  0.00  0.00    +0.000 F 
ATOM      9  C   UNL     1      -3.877  16.023  -3.677  0.00  0.00    +0.000 C 
ATOM     10  C   UNL     1      -2.408  15.859  -3.420  0.00  0.00    +0.000 C 
ATOM     11  C   UNL     1      -1.558  15.092  -4.388  0.00  0.00    +0.000 C 
ATOM     12  O   UNL     1      -0.090  14.929  -4.131  0.00  0.00    +0.000 OA
ATOM     13  C   UNL     1      -2.177  14.488  -5.614  0.00  0.00    +0.000 C 
ATOM     14  C   UNL     1      -3.645  14.651  -5.871  0.00  0.00    +0.000 C 
ATOM     15  C   UNL     1      -4.496  15.418  -4.902  0.00  0.00    +0.000 C 
ATOM     16  C   UNL     1      -5.114  14.814  -6.128  0.00  0.00    +0.000 C 
ATOM     17  C   UNL     1      -5.964  15.582  -5.160  0.00  0.00    +0.000 C 
ATOM     18  F   UNL     1      -7.433  15.745  -5.417  0.00  0.00    +0.000 F 
ATOM     19  C   UNL     1      -6.583  14.978  -6.385  0.00  0.00    +0.000 C 
ATOM     20  O   UNL     1      -5.733  14.210  -7.354  0.00  0.00    +0.000 OA
ATOM     21  C   UNL     1      -8.052  15.141  -6.642  0.00  0.00    +0.000 C 
ATOM     22  C   UNL     1      -8.902  15.908  -5.674  0.00  0.00    +0.000 C 
ATOM     23  C   UNL     1      -9.328  15.235  -6.945  0.00  0.00    +0.000 C 
ENDROOT
BRANCH   1  24
ATOM     24  C   UNL     1     -11.835  16.397  -5.919  0.00  0.00    +0.000 C 
ATOM     25  O   UNL     1     -12.270  17.155  -6.065  0.00  0.00    +0.000 OA
BRANCH  24  26
ATOM     26  C   UNL     1     -12.730  15.193  -5.946  0.00  0.00    +0.000 C 
BRANCH  26  27
ATOM     27  O   UNL     1     -13.653  14.971  -7.107  0.00  0.00    +0.000 OA
BRANCH  27  28
ATOM     28  C   UNL     1     -13.670  13.646  -7.809  0.00  0.00    +0.000 C 
ATOM     29  C   UNL     1     -14.664  12.596  -7.406  0.00  0.00    +0.000 C 
ATOM     30  O   UNL     1     -12.694  13.369  -8.913  0.00  0.00    +0.000 OA
ENDBRANCH  27  28
ENDBRANCH  26  27
ENDBRANCH  24  26
ENDBRANCH   1  24
BRANCH   1  31
ATOM     31  O   UNL     1     -10.387  15.462  -6.949  0.00  0.00    +0.000 OA
BRANCH  31  32
ATOM     32  C   UNL     1     -10.084  16.155  -8.243  0.00  0.00    +0.000 C 
ATOM     33  O   UNL     1     -10.067  17.029  -8.389  0.00  0.00    +0.000 OA
BRANCH  32  34
ATOM     34  C   UNL     1      -9.766  15.351  -9.469  0.00  0.00    +0.000 C 
BRANCH  34  36
ATOM     35  C   UNL     1      -7.377  15.870 -10.348  0.00  0.00    +0.000 C 
ATOM     36  C   UNL     1      -8.866  15.919 -10.526  0.00  0.00    +0.000 C 
ENDBRANCH  34  36
ENDBRANCH  32  34
ENDBRANCH  31  32
ENDBRANCH   1  31
TORSDOF 8
ENDMDL
MODEL 7
REMARK VINA RESULT:      -6.2      1.454      2.260
REMARK  Name = 
REMARK  8 active torsions:
REMARK  status: ('A' for Active; 'I' for Inactive)
REMARK    1  A    between atoms: C_2  and  C_3
REMARK    2  A    between atoms: C_3  and  C_4
REMARK    3  A    between atoms: C_4  and  O_6
REMARK    4  A    between atoms: O_6  and  C_7
REMARK    5  A    between atoms: C_7  and  C_8
REMARK    6  A    between atoms: C_8  and  C_10
REMARK    7  A    between atoms: C_10  and  O_11
REMARK    8  A    between atoms: O_11  and  C_12
REMARK                            x       y       z     vdW  Elec       q    Type
REMARK                         _______ _______ _______ _____ _____    ______ ____
ROOT
ATOM      1  C   UNL     1     -12.948  16.824  -4.637  0.00  0.00    +0.000 C 
ATOM      2  C   UNL     1     -11.605  16.441  -5.182  0.00  0.00    +0.000 C 
ATOM      3  C   UNL     1     -11.814  15.406  -6.248  0.00  0.00    +0.000 C 
ATOM      4  C   UNL     1     -13.288  15.150  -6.361  0.00  0.00    +0.000 C 
ATOM      5  C   UNL     1     -14.083  14.232  -7.242  0.00  0.00    +0.000 C 
ATOM      6  C   UNL     1     -13.382  13.356  -8.238  0.00  0.00    +0.000 C 
ATOM      7  C   UNL     1     -14.176  12.439  -9.119  0.00  0.00    +0.000 C 
ATOM      8  F   UNL     1     -13.475  11.563 -10.115  0.00  0.00    +0.000 F 
ATOM      9  C   UNL     1     -15.671  12.397  -9.005  0.00  0.00    +0.000 C 
ATOM     10  C   UNL     1     -16.465  11.479  -9.887  0.00  0.00    +0.000 C 
ATOM     11  C   UNL     1     -17.960  11.437  -9.772  0.00  0.00    +0.000 C 
ATOM     12  O   UNL     1     -18.754  10.519 -10.654  0.00  0.00    +0.000 OA
ATOM     13  C   UNL     1     -18.661  12.313  -8.777  0.00  0.00    +0.000 C 
ATOM     14  C   UNL     1     -17.867  13.231  -7.895  0.00  0.00    +0.000 C 
ATOM     15  C   UNL     1     -16.372  13.273  -8.009  0.00  0.00    +0.000 C 
ATOM     16  C   UNL     1     -17.073  14.149  -7.014  0.00  0.00    +0.000 C 
ATOM     17  C   UNL     1     -15.578  14.191  -7.128  0.00  0.00    +0.000 C 
ATOM     18  F   UNL     1     -14.784  15.108  -6.247  0.00  0.00    +0.000 F 
ATOM     19  C   UNL     1     -16.279  15.067  -6.132  0.00  0.00    +0.000 C 
ATOM     20  O   UNL     1     -17.774  15.025  -6.018  0.00  0.00    +0.000 OA
ATOM     21  C   UNL     1     -15.484  15.984  -5.251  0.00  0.00    +0.000 C 
ATOM     22  C   UNL     1     -13.989  16.026  -5.365  0.00  0.00    +0.000 C 
ATOM     23  C   UNL     1     -14.867  16.816  -4.441  0.00  0.00    +0.000 C 
ENDROOT
BRANCH   1  24
ATOM     24  C   UNL     1     -12.154  17.742  -3.755  0.00  0.00    +0.000 C 
ATOM     25  O   UNL     1     -11.620  18.400  -4.014  0.00  0.00    +0.000 OA
BRANCH  24  26
ATOM     26  C   UNL     1     -12.219  17.591  -2.264  0.00  0.00    +0.000 C 
BRANCH  26  27
ATOM     27  O   UNL     1     -11.482  16.472  -1.590  0.00  0.00    +0.000 OA
BRANCH  27  28
ATOM     28  C   UNL     1     -10.026  16.622  -1.265  0.00  0.00    +0.000 C 
ATOM     29  C   UNL     1      -9.549  16.438   0.145  0.00  0.00    +0.000 C 
ATOM     30  O   UNL     1      -9.046  16.954  -2.350  0.00  0.00    +0.000 OA
ENDBRANCH  27  28
ENDBRANCH  26  27
ENDBRANCH  24  26
ENDBRANCH   1  24
BRANCH   1  31
ATOM     31  O   UNL     1     -14.126  17.399  -3.907  0.00  0.00    +0.000 OA
BRANCH  31  32
ATOM     32  C   UNL     1     -14.822  18.613  -4.445  0.00  0.00    +0.000 C 
ATOM     33  O   UNL     1     -15.492  19.055  -4.068  0.00  0.00    +0.000 OA
BRANCH  32  34
ATOM     34  C   UNL     1     -14.397  19.202  -5.758  0.00  0.00    +0.000 C 
BRANCH  34  36
ATOM     35  C   UNL     1     -14.912  18.573  -8.225  0.00  0.00    +0.000 C 
ATOM     36  C   UNL     1     -15.338  19.189  -6.925  0.00  0.00    +0.000 C 
ENDBRANCH  34  36
ENDBRANCH  32  34
ENDBRANCH  31  32
ENDBRANCH   1  31
TORSDOF 8
ENDMDL
MODEL 8
REMARK VINA RESULT:      -6.0      2.883      5.449
REMARK  Name = 
REMARK  8 active torsions:
REMARK  status: ('A' for Active; 'I' for Inactive)
REMARK    1  A    between atoms: C_2  and  C_3
REMARK    2  A    between atoms: C_3  and  C_4
REMARK    3  A    between atoms: C_4  and  O_6
REMARK    4  A    between atoms: O_6  and  C_7
REMARK    5  A    between atoms: C_7  and  C_8
REMARK    6  A    between atoms: C_8  and  C_10
REMARK    7  A    between atoms: C_10  and  O_11
REMARK    8  A    between atoms: O_11  and  C_12
REMARK                            x       y       z     vdW  Elec       q    Type
REMARK                         _______ _______ _______ _____ _____    ______ ____
ROOT
ATOM      1  C   UNL     1     -14.508  14.943  -6.190  0.00  0.00    +0.000 C 
ATOM      2  C   UNL     1     -15.404  15.893  -5.453  0.00  0.00    +0.000 C 
ATOM      3  C   UNL     1     -16.819  15.604  -5.858  0.00  0.00    +0.000 C 
ATOM      4  C   UNL     1     -16.797  14.475  -6.846  0.00  0.00    +0.000 C 
ATOM      5  C   UNL     1     -17.893  13.767  -7.585  0.00  0.00    +0.000 C 
ATOM      6  C   UNL     1     -19.322  14.175  -7.379  0.00  0.00    +0.000 C 
ATOM      7  C   UNL     1     -20.418  13.467  -8.118  0.00  0.00    +0.000 C 
ATOM      8  F   UNL     1     -21.847  13.875  -7.913  0.00  0.00    +0.000 F 
ATOM      9  C   UNL     1     -20.086  12.350  -9.062  0.00  0.00    +0.000 C 
ATOM     10  C   UNL     1     -21.182  11.641  -9.801  0.00  0.00    +0.000 C 
ATOM     11  C   UNL     1     -20.850  10.524 -10.745  0.00  0.00    +0.000 C 
ATOM     12  O   UNL     1     -21.946   9.815 -11.484  0.00  0.00    +0.000 OA
ATOM     13  C   UNL     1     -19.422  10.115 -10.951  0.00  0.00    +0.000 C 
ATOM     14  C   UNL     1     -18.325  10.824 -10.212  0.00  0.00    +0.000 C 
ATOM     15  C   UNL     1     -18.657  11.941  -9.268  0.00  0.00    +0.000 C 
ATOM     16  C   UNL     1     -17.229  11.533  -9.473  0.00  0.00    +0.000 C 
ATOM     17  C   UNL     1     -17.561  12.650  -8.529  0.00  0.00    +0.000 C 
ATOM     18  F   UNL     1     -16.465  13.358  -7.790  0.00  0.00    +0.000 F 
ATOM     19  C   UNL     1     -16.132  12.241  -8.734  0.00  0.00    +0.000 C 
ATOM     20  O   UNL     1     -15.800  11.124  -9.679  0.00  0.00    +0.000 OA
ATOM     21  C   UNL     1     -15.036  12.950  -7.996  0.00  0.00    +0.000 C 
ATOM     22  C   UNL     1     -15.368  14.067  -7.051  0.00  0.00    +0.000 C 
ATOM     23  C   UNL     1     -14.015  13.515  -7.390  0.00  0.00    +0.000 C 
ENDROOT
BRANCH   1  24
ATOM     24  C   UNL     1     -13.411  15.652  -5.451  0.00  0.00    +0.000 C 
ATOM     25  O   UNL     1     -12.724  15.281  -5.032  0.00  0.00    +0.000 OA
BRANCH  24  26
ATOM     26  C   UNL     1     -13.408  17.150  -5.370  0.00  0.00    +0.000 C 
BRANCH  26  27
ATOM     27  O   UNL     1     -12.158  17.877  -4.973  0.00  0.00    +0.000 OA
BRANCH  27  28
ATOM     28  C   UNL     1     -11.108  18.179  -6.000  0.00  0.00    +0.000 C 
ATOM     29  C   UNL     1     -11.167  19.460  -6.779  0.00  0.00    +0.000 C 
ATOM     30  O   UNL     1      -9.999  17.202  -6.249  0.00  0.00    +0.000 OA
ENDBRANCH  27  28
ENDBRANCH  26  27
ENDBRANCH  24  26
ENDBRANCH   1  24
BRANCH   1  31
ATOM     31  O   UNL     1     -13.381  14.141  -6.773  0.00  0.00    +0.000 OA
BRANCH  31  32
ATOM     32  C   UNL     1     -12.803  14.517  -8.104  0.00  0.00    +0.000 C 
ATOM     33  O   UNL     1     -12.485  13.968  -8.722  0.00  0.00    +0.000 OA
BRANCH  32  34
ATOM     34  C   UNL     1     -12.719  15.961  -8.506  0.00  0.00    +0.000 C 
BRANCH  34  36
ATOM     35  C   UNL     1     -14.938  16.091  -9.852  0.00  0.00    +0.000 C 
ATOM     36  C   UNL     1     -13.491  16.455  -9.693  0.00  0.00    +0.000 C 
ENDBRANCH  34  36
ENDBRANCH  32  34
ENDBRANCH  31  32
ENDBRANCH   1  31
TORSDOF 8
ENDMDL
MODEL 9
REMARK VINA RESULT:      -5.9      3.919      8.812
REMARK  Name = 
REMARK  8 active torsions:
REMARK  status: ('A' for Active; 'I' for Inactive)
REMARK    1  A    between atoms: C_2  and  C_3
REMARK    2  A    between atoms: C_3  and  C_4
REMARK    3  A    between atoms: C_4  and  O_6
REMARK    4  A    between atoms: O_6  and  C_7
REMARK    5  A    between atoms: C_7  and  C_8
REMARK    6  A    between atoms: C_8  and  C_10
REMARK    7  A    between atoms: C_10  and  O_11
REMARK    8  A    between atoms: O_11  and  C_12
REMARK                            x       y       z     vdW  Elec       q    Type
REMARK                         _______ _______ _______ _____ _____    ______ ____
ROOT
ATOM      1  C   UNL     1     -12.905  16.333  -6.961  0.00  0.00    +0.000 C 
ATOM      2  C   UNL     1     -13.217  16.875  -5.599  0.00  0.00    +0.000 C 
ATOM      3  C   UNL     1     -11.945  16.892  -4.803  0.00  0.00    +0.000 C 
ATOM      4  C   UNL     1     -10.847  16.359  -5.676  0.00  0.00    +0.000 C 
ATOM      5  C   UNL     1      -9.383  16.145  -5.427  0.00  0.00    +0.000 C 
ATOM      6  C   UNL     1      -8.790  16.490  -4.094  0.00  0.00    +0.000 C 
ATOM      7  C   UNL     1      -7.326  16.275  -3.845  0.00  0.00    +0.000 C 
ATOM      8  F   UNL     1      -6.733  16.621  -2.512  0.00  0.00    +0.000 F 
ATOM      9  C   UNL     1      -6.456  15.715  -4.931  0.00  0.00    +0.000 C 
ATOM     10  C   UNL     1      -4.992  15.500  -4.683  0.00  0.00    +0.000 C 
ATOM     11  C   UNL     1      -4.122  14.940  -5.768  0.00  0.00    +0.000 C 
ATOM     12  O   UNL     1      -2.658  14.725  -5.520  0.00  0.00    +0.000 OA
ATOM     13  C   UNL     1      -4.715  14.594  -7.102  0.00  0.00    +0.000 C 
ATOM     14  C   UNL     1      -6.179  14.809  -7.350  0.00  0.00    +0.000 C 
ATOM     15  C   UNL     1      -7.049  15.369  -6.265  0.00  0.00    +0.000 C 
ATOM     16  C   UNL     1      -7.642  15.024  -7.598  0.00  0.00    +0.000 C 
ATOM     17  C   UNL     1      -8.513  15.584  -6.513  0.00  0.00    +0.000 C 
ATOM     18  F   UNL     1      -9.976  15.799  -6.761  0.00  0.00    +0.000 F 
ATOM     19  C   UNL     1      -9.106  15.239  -7.847  0.00  0.00    +0.000 C 
ATOM     20  O   UNL     1      -8.236  14.679  -8.932  0.00  0.00    +0.000 OA
ATOM     21  C   UNL     1     -10.570  15.454  -8.095  0.00  0.00    +0.000 C 
ATOM     22  C   UNL     1     -11.440  16.014  -7.009  0.00  0.00    +0.000 C 
ATOM     23  C   UNL     1     -11.840  15.610  -8.397  0.00  0.00    +0.000 C 
ENDROOT
BRANCH   1  24
ATOM     24  C   UNL     1     -14.369  16.548  -7.209  0.00  0.00    +0.000 C 
ATOM     25  O   UNL     1     -15.044  16.190  -6.760  0.00  0.00    +0.000 OA
BRANCH  24  26
ATOM     26  C   UNL     1     -14.816  17.453  -8.318  0.00  0.00    +0.000 C 
BRANCH  26  27
ATOM     27  O   UNL     1     -15.865  16.991  -9.286  0.00  0.00    +0.000 OA
BRANCH  27  28
ATOM     28  C   UNL     1     -15.608  17.063 -10.762  0.00  0.00    +0.000 C 
ATOM     29  C   UNL     1     -16.747  17.287 -11.712  0.00  0.00    +0.000 C 
ATOM     30  O   UNL     1     -14.212  16.912 -11.288  0.00  0.00    +0.000 OA
ENDBRANCH  27  28
ENDBRANCH  26  27
ENDBRANCH  24  26
ENDBRANCH   1  24
BRANCH   1  31
ATOM     31  O   UNL     1     -12.899  15.836  -8.377  0.00  0.00    +0.000 OA
BRANCH  31  32
ATOM     32  C   UNL     1     -13.251  14.408  -8.671  0.00  0.00    +0.000 C 
ATOM     33  O   UNL     1     -13.413  14.052  -9.466  0.00  0.00    +0.000 OA
BRANCH  32  34
ATOM     34  C   UNL     1     -13.361  13.415  -7.552  0.00  0.00    +0.000 C 
BRANCH  34  36
ATOM     35  C   UNL     1     -14.990  11.456  -8.061  0.00  0.00    +0.000 C 
ATOM     36  C   UNL     1     -14.660  12.708  -7.302  0.00  0.00    +0.000 C 
ENDBRANCH  34  36
ENDBRANCH  32  34
ENDBRANCH  31  32
ENDBRANCH   1  31
TORSDOF 8
ENDMDL
