MODEL 1
REMARK VINA RESULT:      -3.4      0.000      0.000
REMARK  Name = 
REMARK  0 active torsions:
REMARK  status: ('A' for Active; 'I' for Inactive)
REMARK                            x       y       z     vdW  Elec       q    Type
REMARK                         _______ _______ _______ _____ _____    ______ ____
ROOT
ATOM      1  S   UNL     1      -5.278   8.059   6.550  0.00  0.00    +0.000 S 
ATOM      2  C   UNL     1      -4.736   7.915   5.158  0.00  0.00    +0.000 A 
ATOM      3  N   UNL     1      -3.385   7.301   4.939  0.00  0.00    +0.000 NA
ATOM      4  C   UNL     1      -2.844   7.156   3.548  0.00  0.00    +0.000 A 
ATOM      5  N   UNL     1      -3.653   7.625   2.376  0.00  0.00    +0.000 NA
ATOM      6  C   UNL     1      -5.003   8.239   2.595  0.00  0.00    +0.000 A 
ATOM      7  N   UNL     1      -6.022   8.790   1.641  0.00  0.00    +0.000 NA
ATOM      8  C   UNL     1      -7.194   9.275   2.443  0.00  0.00    +0.000 A 
ATOM      9  N   UNL     1      -6.899   9.024   3.892  0.00  0.00    +0.000 NA
ATOM     10  C   UNL     1      -5.545   8.384   3.985  0.00  0.00    +0.000 A 
ENDROOT
TORSDOF 0
ENDMDL
MODEL 2
REMARK VINA RESULT:      -3.3      2.524      3.504
REMARK  Name = 
REMARK  0 active torsions:
REMARK  status: ('A' for Active; 'I' for Inactive)
REMARK                            x       y       z     vdW  Elec       q    Type
REMARK                         _______ _______ _______ _____ _____    ______ ____
ROOT
ATOM      1  S   UNL     1      -5.607  10.870   5.488  0.00  0.00    +0.000 S 
ATOM      2  C   UNL     1      -5.736  10.226   4.138  0.00  0.00    +0.000 A 
ATOM      3  N   UNL     1      -6.942   9.394   3.817  0.00  0.00    +0.000 NA
ATOM      4  C   UNL     1      -7.071   8.751   2.468  0.00  0.00    +0.000 A 
ATOM      5  N   UNL     1      -5.995   8.939   1.441  0.00  0.00    +0.000 NA
ATOM      6  C   UNL     1      -4.789   9.772   1.763  0.00  0.00    +0.000 A 
ATOM      7  N   UNL     1      -3.575  10.133   0.958  0.00  0.00    +0.000 NA
ATOM      8  C   UNL     1      -2.696  11.001   1.811  0.00  0.00    +0.000 A 
ATOM      9  N   UNL     1      -3.366  11.174   3.141  0.00  0.00    +0.000 NA
ATOM     10  C   UNL     1      -4.659  10.415   3.111  0.00  0.00    +0.000 A 
ENDROOT
TORSDOF 0
ENDMDL
MODEL 3
REMARK VINA RESULT:      -3.3     15.352     17.003
REMARK  Name = 
REMARK  0 active torsions:
REMARK  status: ('A' for Active; 'I' for Inactive)
REMARK                            x       y       z     vdW  Elec       q    Type
REMARK                         _______ _______ _______ _____ _____    ______ ____
ROOT
ATOM      1  S   UNL     1     -17.744  14.092  -6.994  0.00  0.00    +0.000 S 
ATOM      2  C   UNL     1     -17.108  13.097  -7.920  0.00  0.00    +0.000 A 
ATOM      3  N   UNL     1     -17.958  12.306  -8.870  0.00  0.00    +0.000 NA
ATOM      4  C   UNL     1     -17.322  11.313  -9.795  0.00  0.00    +0.000 A 
ATOM      5  N   UNL     1     -15.836  11.109  -9.771  0.00  0.00    +0.000 NA
ATOM      6  C   UNL     1     -14.987  11.899  -8.821  0.00  0.00    +0.000 A 
ATOM      7  N   UNL     1     -13.507  11.915  -8.571  0.00  0.00    +0.000 NA
ATOM      8  C   UNL     1     -13.229  12.918  -7.491  0.00  0.00    +0.000 A 
ATOM      9  N   UNL     1     -14.536  13.523  -7.074  0.00  0.00    +0.000 NA
ATOM     10  C   UNL     1     -15.622  12.893  -7.895  0.00  0.00    +0.000 A 
ENDROOT
TORSDOF 0
ENDMDL
MODEL 4
REMARK VINA RESULT:      -3.3     16.094     17.530
REMARK  Name = 
REMARK  0 active torsions:
REMARK  status: ('A' for Active; 'I' for Inactive)
REMARK                            x       y       z     vdW  Elec       q    Type
REMARK                         _______ _______ _______ _____ _____    ______ ____
ROOT
ATOM      1  S   UNL     1     -16.221  14.049  -6.532  0.00  0.00    +0.000 S 
ATOM      2  C   UNL     1     -15.969  13.078  -7.647  0.00  0.00    +0.000 A 
ATOM      3  N   UNL     1     -14.570  12.631  -7.952  0.00  0.00    +0.000 NA
ATOM      4  C   UNL     1     -14.319  11.660  -9.066  0.00  0.00    +0.000 A 
ATOM      5  N   UNL     1     -15.466  11.134  -9.877  0.00  0.00    +0.000 NA
ATOM      6  C   UNL     1     -16.865  11.581  -9.572  0.00  0.00    +0.000 A 
ATOM      7  N   UNL     1     -18.187  11.237 -10.195  0.00  0.00    +0.000 NA
ATOM      8  C   UNL     1     -19.255  11.996  -9.464  0.00  0.00    +0.000 A 
ATOM      9  N   UNL     1     -18.594  12.809  -8.391  0.00  0.00    +0.000 NA
ATOM     10  C   UNL     1     -17.117  12.552  -8.458  0.00  0.00    +0.000 A 
ENDROOT
TORSDOF 0
ENDMDL
MODEL 5
REMARK VINA RESULT:      -3.3      2.370      3.759
REMARK  Name = 
REMARK  0 active torsions:
REMARK  status: ('A' for Active; 'I' for Inactive)
REMARK                            x       y       z     vdW  Elec       q    Type
REMARK                         _______ _______ _______ _____ _____    ______ ____
ROOT
ATOM      1  S   UNL     1      -3.325  10.419   2.318  0.00  0.00    +0.000 S 
ATOM      2  C   UNL     1      -4.530   9.585   2.641  0.00  0.00    +0.000 A 
ATOM      3  N   UNL     1      -5.436   9.118   1.540  0.00  0.00    +0.000 NA
ATOM      4  C   UNL     1      -6.640   8.285   1.863  0.00  0.00    +0.000 A 
ATOM      5  N   UNL     1      -6.939   7.918   3.286  0.00  0.00    +0.000 NA
ATOM      6  C   UNL     1      -6.034   8.385   4.387  0.00  0.00    +0.000 A 
ATOM      7  N   UNL     1      -6.073   8.183   5.873  0.00  0.00    +0.000 NA
ATOM      8  C   UNL     1      -4.892   8.891   6.469  0.00  0.00    +0.000 A 
ATOM      9  N   UNL     1      -4.124   9.531   5.351  0.00  0.00    +0.000 NA
ATOM     10  C   UNL     1      -4.829   9.218   4.065  0.00  0.00    +0.000 A 
ENDROOT
TORSDOF 0
ENDMDL
MODEL 6
REMARK VINA RESULT:      -3.2      1.704      2.676
REMARK  Name = 
REMARK  0 active torsions:
REMARK  status: ('A' for Active; 'I' for Inactive)
REMARK                            x       y       z     vdW  Elec       q    Type
REMARK                         _______ _______ _______ _____ _____    ______ ____
ROOT
ATOM      1  S   UNL     1      -2.539   7.176   4.068  0.00  0.00    +0.000 S 
ATOM      2  C   UNL     1      -3.863   7.618   4.619  0.00  0.00    +0.000 A 
ATOM      3  N   UNL     1      -4.098   7.618   6.100  0.00  0.00    +0.000 NA
ATOM      4  C   UNL     1      -5.421   8.061   6.649  0.00  0.00    +0.000 A 
ATOM      5  N   UNL     1      -6.510   8.503   5.719  0.00  0.00    +0.000 NA
ATOM      6  C   UNL     1      -6.276   8.502   4.237  0.00  0.00    +0.000 A 
ATOM      7  N   UNL     1      -7.155   8.882   3.082  0.00  0.00    +0.000 NA
ATOM      8  C   UNL     1      -6.374   8.674   1.817  0.00  0.00    +0.000 A 
ATOM      9  N   UNL     1      -5.013   8.166   2.192  0.00  0.00    +0.000 NA
ATOM     10  C   UNL     1      -4.953   8.060   3.687  0.00  0.00    +0.000 A 
ENDROOT
TORSDOF 0
ENDMDL
MODEL 7
REMARK VINA RESULT:      -3.2      1.922      3.706
REMARK  Name = 
REMARK  0 active torsions:
REMARK  status: ('A' for Active; 'I' for Inactive)
REMARK                            x       y       z     vdW  Elec       q    Type
REMARK                         _______ _______ _______ _____ _____    ______ ____
ROOT
ATOM      1  S   UNL     1      -4.700  11.722   4.306  0.00  0.00    +0.000 S 
ATOM      2  C   UNL     1      -5.151  10.504   3.553  0.00  0.00    +0.000 A 
ATOM      3  N   UNL     1      -6.542  10.438   2.996  0.00  0.00    +0.000 NA
ATOM      4  C   UNL     1      -6.991   9.221   2.245  0.00  0.00    +0.000 A 
ATOM      5  N   UNL     1      -6.051   8.070   2.049  0.00  0.00    +0.000 NA
ATOM      6  C   UNL     1      -4.660   8.136   2.606  0.00  0.00    +0.000 A 
ATOM      7  N   UNL     1      -3.518   7.163   2.573  0.00  0.00    +0.000 NA
ATOM      8  C   UNL     1      -2.362   7.780   3.304  0.00  0.00    +0.000 A 
ATOM      9  N   UNL     1      -2.790   9.133   3.790  0.00  0.00    +0.000 NA
ATOM     10  C   UNL     1      -4.209   9.353   3.358  0.00  0.00    +0.000 A 
ENDROOT
TORSDOF 0
ENDMDL
MODEL 8
REMARK VINA RESULT:      -3.2      2.175      2.335
REMARK  Name = 
REMARK  0 active torsions:
REMARK  status: ('A' for Active; 'I' for Inactive)
REMARK                            x       y       z     vdW  Elec       q    Type
REMARK                         _______ _______ _______ _____ _____    ______ ____
ROOT
ATOM      1  S   UNL     1      -3.406  11.759   3.621  0.00  0.00    +0.000 S 
ATOM      2  C   UNL     1      -3.524  10.308   3.254  0.00  0.00    +0.000 A 
ATOM      3  N   UNL     1      -2.308   9.431   3.259  0.00  0.00    +0.000 NA
ATOM      4  C   UNL     1      -2.427   7.983   2.892  0.00  0.00    +0.000 A 
ATOM      5  N   UNL     1      -3.763   7.409   2.521  0.00  0.00    +0.000 NA
ATOM      6  C   UNL     1      -4.979   8.287   2.517  0.00  0.00    +0.000 A 
ATOM      7  N   UNL     1      -6.418   8.006   2.197  0.00  0.00    +0.000 NA
ATOM      8  C   UNL     1      -7.188   9.282   2.366  0.00  0.00    +0.000 A 
ATOM      9  N   UNL     1      -6.226  10.351   2.790  0.00  0.00    +0.000 NA
ATOM     10  C   UNL     1      -4.861   9.736   2.883  0.00  0.00    +0.000 A 
ENDROOT
TORSDOF 0
ENDMDL
MODEL 9
REMARK VINA RESULT:      -3.2     14.635     15.971
REMARK  Name = 
REMARK  0 active torsions:
REMARK  status: ('A' for Active; 'I' for Inactive)
REMARK                            x       y       z     vdW  Elec       q    Type
REMARK                         _______ _______ _______ _____ _____    ______ ____
ROOT
ATOM      1  S   UNL     1     -17.680  13.897  -7.215  0.00  0.00    +0.000 S 
ATOM      2  C   UNL     1     -16.402  13.218  -7.614  0.00  0.00    +0.000 A 
ATOM      3  N   UNL     1     -16.427  12.102  -8.615  0.00  0.00    +0.000 NA
ATOM      4  C   UNL     1     -15.150  11.424  -9.014  0.00  0.00    +0.000 A 
ATOM      5  N   UNL     1     -13.849  11.861  -8.411  0.00  0.00    +0.000 NA
ATOM      6  C   UNL     1     -13.824  12.977  -7.409  0.00  0.00    +0.000 A 
ATOM      7  N   UNL     1     -12.701  13.621  -6.651  0.00  0.00    +0.000 NA
ATOM      8  C   UNL     1     -13.284  14.697  -5.784  0.00  0.00    +0.000 A 
ATOM      9  N   UNL     1     -14.766  14.719  -6.006  0.00  0.00    +0.000 NA
ATOM     10  C   UNL     1     -15.100  13.656  -7.010  0.00  0.00    +0.000 A 
ENDROOT
TORSDOF 0
ENDMDL
