MODEL 1
REMARK VINA RESULT:      -4.8      0.000      0.000
REMARK  Name = 
REMARK  5 active torsions:
REMARK  status: ('A' for Active; 'I' for Inactive)
REMARK    1  A    between atoms: C_2  and  C_3
REMARK    2  A    between atoms: C_3  and  N_4
REMARK    3  A    between atoms: N_4  and  C_5
REMARK    4  A    between atoms: C_5  and  C_7
REMARK    5  A    between atoms: N_9  and  C_10
REMARK                            x       y       z     vdW  Elec       q    Type
REMARK                         _______ _______ _______ _____ _____    ______ ____
ROOT
ATOM      1  C   UNL     1     -14.267  14.019  -8.248  0.00  0.00    +0.000 C 
ATOM      2  O   UNL     1     -14.759  14.823  -9.414  0.00  0.00    +0.000 OA
ATOM      3  N   UNL     1     -15.163  12.999  -7.609  0.00  0.00    +0.000 NA
ENDROOT
BRANCH   3   4
ATOM      4  C   UNL     1     -16.550  12.784  -8.137  0.00  0.00    +0.000 A 
ATOM      5  C   UNL     1     -17.702  13.546  -7.552  0.00  0.00    +0.000 A 
ATOM      6  C   UNL     1     -19.089  13.331  -8.080  0.00  0.00    +0.000 A 
ATOM      7  C   UNL     1     -19.325  12.353  -9.193  0.00  0.00    +0.000 A 
ATOM      8  C   UNL     1     -18.173  11.591  -9.778  0.00  0.00    +0.000 A 
ATOM      9  C   UNL     1     -16.786  11.806  -9.250  0.00  0.00    +0.000 A 
ATOM     10  C   UNL     1     -15.634  11.044  -9.835  0.00  0.00    +0.000 C 
ENDBRANCH   3   4
BRANCH   1  11
ATOM     11  C   UNL     1     -12.879  14.234  -7.720  0.00  0.00    +0.000 C 
ATOM     12  C   UNL     1     -12.608  14.107  -6.250  0.00  0.00    +0.000 C 
BRANCH  11  13
ATOM     13  N   UNL     1     -11.763  14.576  -8.662  0.00  0.00    +0.000 NA
BRANCH  13  14
ATOM     14  C   UNL     1     -10.604  15.399  -8.183  0.00  0.00    +0.000 C 
BRANCH  14  16
ATOM     15  C   UNL     1      -9.101  14.426 -10.066  0.00  0.00    +0.000 C 
ATOM     16  C   UNL     1      -9.328  15.426  -8.971  0.00  0.00    +0.000 C 
ENDBRANCH  14  16
ENDBRANCH  13  14
ENDBRANCH  11  13
ENDBRANCH   1  11
TORSDOF 5
ENDMDL
MODEL 2
REMARK VINA RESULT:      -4.5      1.555      2.859
REMARK  Name = 
REMARK  5 active torsions:
REMARK  status: ('A' for Active; 'I' for Inactive)
REMARK    1  A    between atoms: C_2  and  C_3
REMARK    2  A    between atoms: C_3  and  N_4
REMARK    3  A    between atoms: N_4  and  C_5
REMARK    4  A    between atoms: C_5  and  C_7
REMARK    5  A    between atoms: N_9  and  C_10
REMARK                            x       y       z     vdW  Elec       q    Type
REMARK                         _______ _______ _______ _____ _____    ______ ____
ROOT
ATOM      1  C   UNL     1     -12.366  14.723  -8.387  0.00  0.00    +0.000 C 
ATOM      2  O   UNL     1     -13.232  15.517  -9.319  0.00  0.00    +0.000 OA
ATOM      3  N   UNL     1     -12.816  13.375  -7.909  0.00  0.00    +0.000 NA
ENDROOT
BRANCH   3   4
ATOM      4  C   UNL     1     -14.133  12.819  -8.363  0.00  0.00    +0.000 A 
ATOM      5  C   UNL     1     -14.197  11.934  -9.573  0.00  0.00    +0.000 A 
ATOM      6  C   UNL     1     -15.514  11.379 -10.027  0.00  0.00    +0.000 A 
ATOM      7  C   UNL     1     -16.767  11.709  -9.273  0.00  0.00    +0.000 A 
ATOM      8  C   UNL     1     -16.704  12.594  -8.063  0.00  0.00    +0.000 A 
ATOM      9  C   UNL     1     -15.387  13.149  -7.609  0.00  0.00    +0.000 A 
ATOM     10  C   UNL     1     -15.323  14.034  -6.399  0.00  0.00    +0.000 C 
ENDBRANCH   3   4
BRANCH   1  11
ATOM     11  C   UNL     1     -11.048  15.279  -7.932  0.00  0.00    +0.000 C 
ATOM     12  C   UNL     1     -10.720  15.328  -6.469  0.00  0.00    +0.000 C 
BRANCH  11  13
ATOM     13  N   UNL     1     -10.060  15.785  -8.940  0.00  0.00    +0.000 NA
BRANCH  13  14
ATOM     14  C   UNL     1      -8.869  14.951  -9.308  0.00  0.00    +0.000 C 
BRANCH  14  16
ATOM     15  C   UNL     1      -6.827  14.577  -7.746  0.00  0.00    +0.000 C 
ATOM     16  C   UNL     1      -7.501  15.350  -8.841  0.00  0.00    +0.000 C 
ENDBRANCH  14  16
ENDBRANCH  13  14
ENDBRANCH  11  13
ENDBRANCH   1  11
TORSDOF 5
ENDMDL
MODEL 3
REMARK VINA RESULT:      -4.5      1.215      2.332
REMARK  Name = 
REMARK  5 active torsions:
REMARK  status: ('A' for Active; 'I' for Inactive)
REMARK    1  A    between atoms: C_2  and  C_3
REMARK    2  A    between atoms: C_3  and  N_4
REMARK    3  A    between atoms: N_4  and  C_5
REMARK    4  A    between atoms: C_5  and  C_7
REMARK    5  A    between atoms: N_9  and  C_10
REMARK                            x       y       z     vdW  Elec       q    Type
REMARK                         _______ _______ _______ _____ _____    ______ ____
ROOT
ATOM      1  C   UNL     1     -13.431  14.420  -7.318  0.00  0.00    +0.000 C 
ATOM      2  O   UNL     1     -13.496  14.904  -8.736  0.00  0.00    +0.000 OA
ATOM      3  N   UNL     1     -14.314  13.293  -6.870  0.00  0.00    +0.000 NA
ENDROOT
BRANCH   3   4
ATOM      4  C   UNL     1     -15.261  12.651  -7.839  0.00  0.00    +0.000 A 
ATOM      5  C   UNL     1     -14.757  11.631  -8.816  0.00  0.00    +0.000 A 
ATOM      6  C   UNL     1     -15.705  10.988  -9.786  0.00  0.00    +0.000 A 
ATOM      7  C   UNL     1     -17.156  11.367  -9.778  0.00  0.00    +0.000 A 
ATOM      8  C   UNL     1     -17.660  12.387  -8.801  0.00  0.00    +0.000 A 
ATOM      9  C   UNL     1     -16.713  13.029  -7.832  0.00  0.00    +0.000 A 
ATOM     10  C   UNL     1     -17.217  14.050  -6.855  0.00  0.00    +0.000 C 
ENDBRANCH   3   4
BRANCH   1  11
ATOM     11  C   UNL     1     -12.484  15.062  -6.349  0.00  0.00    +0.000 C 
ATOM     12  C   UNL     1     -13.016  15.890  -5.217  0.00  0.00    +0.000 C 
BRANCH  11  13
ATOM     13  N   UNL     1     -11.004  14.876  -6.511  0.00  0.00    +0.000 NA
BRANCH  13  14
ATOM     14  C   UNL     1     -10.217  15.833  -7.357  0.00  0.00    +0.000 C 
BRANCH  14  16
ATOM     15  C   UNL     1      -9.492  14.871  -9.659  0.00  0.00    +0.000 C 
ATOM     16  C   UNL     1      -9.144  15.318  -8.270  0.00  0.00    +0.000 C 
ENDBRANCH  14  16
ENDBRANCH  13  14
ENDBRANCH  11  13
ENDBRANCH   1  11
TORSDOF 5
ENDMDL
MODEL 4
REMARK VINA RESULT:      -4.5     15.185     17.130
REMARK  Name = 
REMARK  5 active torsions:
REMARK  status: ('A' for Active; 'I' for Inactive)
REMARK    1  A    between atoms: C_2  and  C_3
REMARK    2  A    between atoms: C_3  and  N_4
REMARK    3  A    between atoms: N_4  and  C_5
REMARK    4  A    between atoms: C_5  and  C_7
REMARK    5  A    between atoms: N_9  and  C_10
REMARK                            x       y       z     vdW  Elec       q    Type
REMARK                         _______ _______ _______ _____ _____    ______ ____
ROOT
ATOM      1  C   UNL     1      -2.412   7.937   2.558  0.00  0.00    +0.000 C 
ATOM      2  O   UNL     1      -2.152   9.291   3.151  0.00  0.00    +0.000 OA
ATOM      3  N   UNL     1      -3.707   7.233   2.837  0.00  0.00    +0.000 NA
ENDROOT
BRANCH   3   4
ATOM      4  C   UNL     1      -4.742   7.883   3.708  0.00  0.00    +0.000 A 
ATOM      5  C   UNL     1      -4.635   7.783   5.200  0.00  0.00    +0.000 A 
ATOM      6  C   UNL     1      -5.669   8.432   6.071  0.00  0.00    +0.000 A 
ATOM      7  C   UNL     1      -6.811   9.181   5.449  0.00  0.00    +0.000 A 
ATOM      8  C   UNL     1      -6.917   9.281   3.957  0.00  0.00    +0.000 A 
ATOM      9  C   UNL     1      -5.883   8.631   3.086  0.00  0.00    +0.000 A 
ATOM     10  C   UNL     1      -5.990   8.731   1.593  0.00  0.00    +0.000 C 
ENDBRANCH   3   4
BRANCH   1  11
ATOM     11  C   UNL     1      -1.378   7.288   1.687  0.00  0.00    +0.000 C 
ATOM     12  C   UNL     1      -1.511   5.841   1.316  0.00  0.00    +0.000 C 
BRANCH  11  13
ATOM     13  N   UNL     1      -0.211   8.087   1.187  0.00  0.00    +0.000 NA
BRANCH  13  14
ATOM     14  C   UNL     1      -0.143   8.493  -0.255  0.00  0.00    +0.000 C 
BRANCH  14  16
ATOM     15  C   UNL     1       1.715   6.739  -0.727  0.00  0.00    +0.000 C 
ATOM     16  C   UNL     1       0.657   7.676  -1.227  0.00  0.00    +0.000 C 
ENDBRANCH  14  16
ENDBRANCH  13  14
ENDBRANCH  11  13
ENDBRANCH   1  11
TORSDOF 5
ENDMDL
MODEL 5
REMARK VINA RESULT:      -4.4      2.144      3.293
REMARK  Name = 
REMARK  5 active torsions:
REMARK  status: ('A' for Active; 'I' for Inactive)
REMARK    1  A    between atoms: C_2  and  C_3
REMARK    2  A    between atoms: C_3  and  N_4
REMARK    3  A    between atoms: N_4  and  C_5
REMARK    4  A    between atoms: C_5  and  C_7
REMARK    5  A    between atoms: N_9  and  C_10
REMARK                            x       y       z     vdW  Elec       q    Type
REMARK                         _______ _______ _______ _____ _____    ______ ____
ROOT
ATOM      1  C   UNL     1     -14.914  13.104  -9.037  0.00  0.00    +0.000 C 
ATOM      2  O   UNL     1     -15.421  14.239  -9.876  0.00  0.00    +0.000 OA
ATOM      3  N   UNL     1     -15.869  12.070  -8.517  0.00  0.00    +0.000 NA
ENDROOT
BRANCH   3   4
ATOM      4  C   UNL     1     -17.331  12.173  -8.836  0.00  0.00    +0.000 A 
ATOM      5  C   UNL     1     -17.915  11.352  -9.947  0.00  0.00    +0.000 A 
ATOM      6  C   UNL     1     -19.377  11.454 -10.266  0.00  0.00    +0.000 A 
ATOM      7  C   UNL     1     -20.255  12.377  -9.474  0.00  0.00    +0.000 A 
ATOM      8  C   UNL     1     -19.671  13.197  -8.362  0.00  0.00    +0.000 A 
ATOM      9  C   UNL     1     -18.209  13.095  -8.043  0.00  0.00    +0.000 A 
ATOM     10  C   UNL     1     -17.624  13.916  -6.932  0.00  0.00    +0.000 C 
ENDBRANCH   3   4
BRANCH   1  11
ATOM     11  C   UNL     1     -13.451  13.002  -8.718  0.00  0.00    +0.000 C 
ATOM     12  C   UNL     1     -12.525  12.295  -9.663  0.00  0.00    +0.000 C 
BRANCH  11  13
ATOM     13  N   UNL     1     -12.915  13.606  -7.455  0.00  0.00    +0.000 NA
BRANCH  13  14
ATOM     14  C   UNL     1     -13.827  13.828  -6.284  0.00  0.00    +0.000 C 
BRANCH  14  16
ATOM     15  C   UNL     1     -14.595  16.210  -6.983  0.00  0.00    +0.000 C 
ATOM     16  C   UNL     1     -14.244  15.220  -5.912  0.00  0.00    +0.000 C 
ENDBRANCH  14  16
ENDBRANCH  13  14
ENDBRANCH  11  13
ENDBRANCH   1  11
TORSDOF 5
ENDMDL
MODEL 6
REMARK VINA RESULT:      -4.4      2.292      4.117
REMARK  Name = 
REMARK  5 active torsions:
REMARK  status: ('A' for Active; 'I' for Inactive)
REMARK    1  A    between atoms: C_2  and  C_3
REMARK    2  A    between atoms: C_3  and  N_4
REMARK    3  A    between atoms: N_4  and  C_5
REMARK    4  A    between atoms: C_5  and  C_7
REMARK    5  A    between atoms: N_9  and  C_10
REMARK                            x       y       z     vdW  Elec       q    Type
REMARK                         _______ _______ _______ _____ _____    ______ ____
ROOT
ATOM      1  C   UNL     1     -13.504  14.527  -7.155  0.00  0.00    +0.000 C 
ATOM      2  O   UNL     1     -13.751  15.192  -8.477  0.00  0.00    +0.000 OA
ATOM      3  N   UNL     1     -14.221  13.256  -6.809  0.00  0.00    +0.000 NA
ENDROOT
BRANCH   3   4
ATOM      4  C   UNL     1     -15.186  12.650  -7.785  0.00  0.00    +0.000 A 
ATOM      5  C   UNL     1     -14.699  11.670  -8.811  0.00  0.00    +0.000 A 
ATOM      6  C   UNL     1     -15.664  11.064  -9.786  0.00  0.00    +0.000 A 
ATOM      7  C   UNL     1     -17.115  11.438  -9.736  0.00  0.00    +0.000 A 
ATOM      8  C   UNL     1     -17.602  12.417  -8.710  0.00  0.00    +0.000 A 
ATOM      9  C   UNL     1     -16.638  13.024  -7.735  0.00  0.00    +0.000 A 
ATOM     10  C   UNL     1     -17.125  14.003  -6.709  0.00  0.00    +0.000 C 
ENDBRANCH   3   4
BRANCH   1  11
ATOM     11  C   UNL     1     -12.539  15.133  -6.180  0.00  0.00    +0.000 C 
ATOM     12  C   UNL     1     -11.066  15.098  -6.461  0.00  0.00    +0.000 C 
BRANCH  11  13
ATOM     13  N   UNL     1     -13.047  15.775  -4.923  0.00  0.00    +0.000 NA
BRANCH  13  14
ATOM     14  C   UNL     1     -14.085  16.855  -4.999  0.00  0.00    +0.000 C 
BRANCH  14  16
ATOM     15  C   UNL     1     -16.622  17.407  -5.099  0.00  0.00    +0.000 C 
ATOM     16  C   UNL     1     -15.494  16.573  -4.568  0.00  0.00    +0.000 C 
ENDBRANCH  14  16
ENDBRANCH  13  14
ENDBRANCH  11  13
ENDBRANCH   1  11
TORSDOF 5
ENDMDL
MODEL 7
REMARK VINA RESULT:      -4.4      2.226      3.603
REMARK  Name = 
REMARK  5 active torsions:
REMARK  status: ('A' for Active; 'I' for Inactive)
REMARK    1  A    between atoms: C_2  and  C_3
REMARK    2  A    between atoms: C_3  and  N_4
REMARK    3  A    between atoms: N_4  and  C_5
REMARK    4  A    between atoms: C_5  and  C_7
REMARK    5  A    between atoms: N_9  and  C_10
REMARK                            x       y       z     vdW  Elec       q    Type
REMARK                         _______ _______ _______ _____ _____    ______ ____
ROOT
ATOM      1  C   UNL     1     -13.943  14.648  -7.055  0.00  0.00    +0.000 C 
ATOM      2  O   UNL     1     -14.134  15.239  -8.421  0.00  0.00    +0.000 OA
ATOM      3  N   UNL     1     -14.879  13.586  -6.560  0.00  0.00    +0.000 NA
ENDROOT
BRANCH   3   4
ATOM      4  C   UNL     1     -16.007  13.114  -7.430  0.00  0.00    +0.000 A 
ATOM      5  C   UNL     1     -17.382  13.685  -7.251  0.00  0.00    +0.000 A 
ATOM      6  C   UNL     1     -18.509  13.213  -8.121  0.00  0.00    +0.000 A 
ATOM      7  C   UNL     1     -18.261  12.171  -9.170  0.00  0.00    +0.000 A 
ATOM      8  C   UNL     1     -16.885  11.600  -9.350  0.00  0.00    +0.000 A 
ATOM      9  C   UNL     1     -15.758  12.072  -8.480  0.00  0.00    +0.000 A 
ATOM     10  C   UNL     1     -14.383  11.501  -8.660  0.00  0.00    +0.000 C 
ENDBRANCH   3   4
BRANCH   1  11
ATOM     11  C   UNL     1     -12.816  15.119  -6.185  0.00  0.00    +0.000 C 
ATOM     12  C   UNL     1     -11.396  14.903  -6.615  0.00  0.00    +0.000 C 
BRANCH  11  13
ATOM     13  N   UNL     1     -13.110  15.807  -4.885  0.00  0.00    +0.000 NA
BRANCH  13  14
ATOM     14  C   UNL     1     -14.098  16.934  -4.839  0.00  0.00    +0.000 C 
BRANCH  14  16
ATOM     15  C   UNL     1     -16.630  16.783  -5.401  0.00  0.00    +0.000 C 
ATOM     16  C   UNL     1     -15.511  16.676  -4.408  0.00  0.00    +0.000 C 
ENDBRANCH  14  16
ENDBRANCH  13  14
ENDBRANCH  11  13
ENDBRANCH   1  11
TORSDOF 5
ENDMDL
MODEL 8
REMARK VINA RESULT:      -4.4      1.418      1.586
REMARK  Name = 
REMARK  5 active torsions:
REMARK  status: ('A' for Active; 'I' for Inactive)
REMARK    1  A    between atoms: C_2  and  C_3
REMARK    2  A    between atoms: C_3  and  N_4
REMARK    3  A    between atoms: N_4  and  C_5
REMARK    4  A    between atoms: C_5  and  C_7
REMARK    5  A    between atoms: N_9  and  C_10
REMARK                            x       y       z     vdW  Elec       q    Type
REMARK                         _______ _______ _______ _____ _____    ______ ____
ROOT
ATOM      1  C   UNL     1     -13.995  14.714  -6.996  0.00  0.00    +0.000 C 
ATOM      2  O   UNL     1     -14.257  15.391  -8.309  0.00  0.00    +0.000 OA
ATOM      3  N   UNL     1     -14.879  13.591  -6.542  0.00  0.00    +0.000 NA
ENDROOT
BRANCH   3   4
ATOM      4  C   UNL     1     -16.025  13.144  -7.400  0.00  0.00    +0.000 A 
ATOM      5  C   UNL     1     -17.388  13.736  -7.199  0.00  0.00    +0.000 A 
ATOM      6  C   UNL     1     -18.534  13.289  -8.058  0.00  0.00    +0.000 A 
ATOM      7  C   UNL     1     -18.317  12.250  -9.117  0.00  0.00    +0.000 A 
ATOM      8  C   UNL     1     -16.953  11.658  -9.318  0.00  0.00    +0.000 A 
ATOM      9  C   UNL     1     -15.807  12.105  -8.460  0.00  0.00    +0.000 A 
ATOM     10  C   UNL     1     -14.444  11.512  -8.661  0.00  0.00    +0.000 C 
ENDBRANCH   3   4
BRANCH   1  11
ATOM     11  C   UNL     1     -12.849  15.161  -6.137  0.00  0.00    +0.000 C 
ATOM     12  C   UNL     1     -13.103  16.029  -4.941  0.00  0.00    +0.000 C 
BRANCH  11  13
ATOM     13  N   UNL     1     -11.450  14.740  -6.475  0.00  0.00    +0.000 NA
BRANCH  13  14
ATOM     14  C   UNL     1     -10.311  15.696  -6.278  0.00  0.00    +0.000 C 
BRANCH  14  16
ATOM     15  C   UNL     1      -8.877  15.485  -8.435  0.00  0.00    +0.000 C 
ATOM     16  C   UNL     1      -8.990  15.435  -6.940  0.00  0.00    +0.000 C 
ENDBRANCH  14  16
ENDBRANCH  13  14
ENDBRANCH  11  13
ENDBRANCH   1  11
TORSDOF 5
ENDMDL
MODEL 9
REMARK VINA RESULT:      -4.4      1.719      2.521
REMARK  Name = 
REMARK  5 active torsions:
REMARK  status: ('A' for Active; 'I' for Inactive)
REMARK    1  A    between atoms: C_2  and  C_3
REMARK    2  A    between atoms: C_3  and  N_4
REMARK    3  A    between atoms: N_4  and  C_5
REMARK    4  A    between atoms: C_5  and  C_7
REMARK    5  A    between atoms: N_9  and  C_10
REMARK                            x       y       z     vdW  Elec       q    Type
REMARK                         _______ _______ _______ _____ _____    ______ ____
ROOT
ATOM      1  C   UNL     1     -12.498  15.081  -7.918  0.00  0.00    +0.000 C 
ATOM      2  O   UNL     1     -13.230  15.745  -9.047  0.00  0.00    +0.000 OA
ATOM      3  N   UNL     1     -12.900  13.708  -7.467  0.00  0.00    +0.000 NA
ENDROOT
BRANCH   3   4
ATOM      4  C   UNL     1     -14.035  12.999  -8.146  0.00  0.00    +0.000 A 
ATOM      5  C   UNL     1     -15.427  13.121  -7.602  0.00  0.00    +0.000 A 
ATOM      6  C   UNL     1     -16.562  12.411  -8.280  0.00  0.00    +0.000 A 
ATOM      7  C   UNL     1     -16.304  11.580  -9.502  0.00  0.00    +0.000 A 
ATOM      8  C   UNL     1     -14.911  11.458 -10.045  0.00  0.00    +0.000 A 
ATOM      9  C   UNL     1     -13.776  12.168  -9.367  0.00  0.00    +0.000 A 
ATOM     10  C   UNL     1     -12.384  12.046  -9.911  0.00  0.00    +0.000 C 
ENDBRANCH   3   4
BRANCH   1  11
ATOM     11  C   UNL     1     -11.363  15.790  -7.240  0.00  0.00    +0.000 C 
ATOM     12  C   UNL     1     -11.447  16.111  -5.777  0.00  0.00    +0.000 C 
BRANCH  11  13
ATOM     13  N   UNL     1     -10.146  16.179  -8.025  0.00  0.00    +0.000 NA
BRANCH  13  14
ATOM     14  C   UNL     1      -9.528  15.204  -8.983  0.00  0.00    +0.000 C 
BRANCH  14  16
ATOM     15  C   UNL     1      -7.237  14.644  -7.895  0.00  0.00    +0.000 C 
ATOM     16  C   UNL     1      -8.036  15.093  -9.082  0.00  0.00    +0.000 C 
ENDBRANCH  14  16
ENDBRANCH  13  14
ENDBRANCH  11  13
ENDBRANCH   1  11
TORSDOF 5
ENDMDL
