MODEL 1
REMARK VINA RESULT:      -5.5      0.000      0.000
REMARK  Name = 
REMARK  5 active torsions:
REMARK  status: ('A' for Active; 'I' for Inactive)
REMARK    1  A    between atoms: C_2  and  C_3
REMARK    2  A    between atoms: C_2  and  C_17
REMARK    3  A    between atoms: C_4  and  C_5
REMARK    4  A    between atoms: C_5  and  C_6
REMARK    5  A    between atoms: C_6  and  N_7
REMARK                            x       y       z     vdW  Elec       q    Type
REMARK                         _______ _______ _______ _____ _____    ______ ____
ROOT
ATOM      1  C   UNL     1     -18.908  12.105  -9.722  0.00  0.00    +0.000 C 
ATOM      2  C   UNL     1     -19.645  13.018  -8.788  0.00  0.00    +0.000 C 
ATOM      3  C   UNL     1     -18.681  13.491  -7.742  0.00  0.00    +0.000 C 
ATOM      4  C   UNL     1     -17.346  12.869  -8.028  0.00  0.00    +0.000 A 
ATOM      5  C   UNL     1     -16.021  12.971  -7.333  0.00  0.00    +0.000 A 
ATOM      6  C   UNL     1     -14.836  12.218  -7.861  0.00  0.00    +0.000 A 
ATOM      7  C   UNL     1     -14.976  11.361  -9.084  0.00  0.00    +0.000 A 
ATOM      8  C   UNL     1     -16.302  11.259  -9.780  0.00  0.00    +0.000 A 
ATOM      9  C   UNL     1     -17.486  12.012  -9.252  0.00  0.00    +0.000 A 
ENDROOT
BRANCH   1  11
ATOM     10  C   UNL     1     -19.523  12.098 -12.245  0.00  0.00    +0.000 C 
ATOM     11  C   UNL     1     -19.489  11.407 -10.915  0.00  0.00    +0.000 C 
BRANCH  11  12
ATOM     12  C   UNL     1     -20.036  10.017 -10.779  0.00  0.00    +0.000 A 
ATOM     13  C   UNL     1     -19.167   8.835 -11.092  0.00  0.00    +0.000 A 
ATOM     14  C   UNL     1     -19.714   7.445 -10.956  0.00  0.00    +0.000 A 
ATOM     15  C   UNL     1     -21.130   7.236 -10.507  0.00  0.00    +0.000 A 
ATOM     16  C   UNL     1     -21.999   8.418 -10.193  0.00  0.00    +0.000 A 
ATOM     17  N   UNL     1     -21.451   9.809 -10.330  0.00  0.00    +0.000 NA
ENDBRANCH  11  12
ENDBRANCH   1  11
BRANCH   2  18
ATOM     18  C   UNL     1     -21.094  13.394  -8.885  0.00  0.00    +0.000 C 
BRANCH  18  19
ATOM     19  C   UNL     1     -22.125  12.607  -8.131  0.00  0.00    +0.000 C 
BRANCH  19  20
ATOM     20  N   UNL     1     -22.652  13.121  -6.824  0.00  0.00    +0.000 NA
ATOM     21  C   UNL     1     -21.974  14.272  -6.142  0.00  0.00    +0.000 C 
ATOM     22  C   UNL     1     -23.857  12.483  -6.198  0.00  0.00    +0.000 C 
ENDBRANCH  19  20
ENDBRANCH  18  19
ENDBRANCH   2  18
TORSDOF 5
ENDMDL
MODEL 2
REMARK VINA RESULT:      -5.5      1.977      4.946
REMARK  Name = 
REMARK  5 active torsions:
REMARK  status: ('A' for Active; 'I' for Inactive)
REMARK    1  A    between atoms: C_2  and  C_3
REMARK    2  A    between atoms: C_2  and  C_17
REMARK    3  A    between atoms: C_4  and  C_5
REMARK    4  A    between atoms: C_5  and  C_6
REMARK    5  A    between atoms: C_6  and  N_7
REMARK                            x       y       z     vdW  Elec       q    Type
REMARK                         _______ _______ _______ _____ _____    ______ ____
ROOT
ATOM      1  C   UNL     1     -18.851  12.149  -9.644  0.00  0.00    +0.000 C 
ATOM      2  C   UNL     1     -17.424  12.253  -9.195  0.00  0.00    +0.000 C 
ATOM      3  C   UNL     1     -17.392  13.051  -7.926  0.00  0.00    +0.000 C 
ATOM      4  C   UNL     1     -18.802  13.441  -7.589  0.00  0.00    +0.000 A 
ATOM      5  C   UNL     1     -19.381  14.231  -6.453  0.00  0.00    +0.000 A 
ATOM      6  C   UNL     1     -20.860  14.464  -6.379  0.00  0.00    +0.000 A 
ATOM      7  C   UNL     1     -21.762  13.907  -7.441  0.00  0.00    +0.000 A 
ATOM      8  C   UNL     1     -21.183  13.117  -8.577  0.00  0.00    +0.000 A 
ATOM      9  C   UNL     1     -19.703  12.884  -8.651  0.00  0.00    +0.000 A 
ENDROOT
BRANCH   1  11
ATOM     10  C   UNL     1     -19.233  12.096 -12.213  0.00  0.00    +0.000 C 
ATOM     11  C   UNL     1     -19.341  11.438 -10.870  0.00  0.00    +0.000 C 
BRANCH  11  12
ATOM     12  C   UNL     1     -19.939  10.067 -10.753  0.00  0.00    +0.000 A 
ATOM     13  C   UNL     1     -19.115   8.858 -11.086  0.00  0.00    +0.000 A 
ATOM     14  C   UNL     1     -19.713   7.488 -10.969  0.00  0.00    +0.000 A 
ATOM     15  C   UNL     1     -21.134   7.325 -10.521  0.00  0.00    +0.000 A 
ATOM     16  C   UNL     1     -21.959   8.534 -10.188  0.00  0.00    +0.000 A 
ATOM     17  N   UNL     1     -21.361   9.905 -10.305  0.00  0.00    +0.000 NA
ENDBRANCH  11  12
ENDBRANCH   1  11
BRANCH   2  18
ATOM     18  C   UNL     1     -16.235  11.662  -9.894  0.00  0.00    +0.000 C 
BRANCH  18  19
ATOM     19  C   UNL     1     -14.924  11.543  -9.174  0.00  0.00    +0.000 C 
BRANCH  19  20
ATOM     20  N   UNL     1     -13.846  12.560  -9.407  0.00  0.00    +0.000 NA
ATOM     21  C   UNL     1     -12.469  12.115  -9.803  0.00  0.00    +0.000 C 
ATOM     22  C   UNL     1     -14.144  14.021  -9.243  0.00  0.00    +0.000 C 
ENDBRANCH  19  20
ENDBRANCH  18  19
ENDBRANCH   2  18
TORSDOF 5
ENDMDL
MODEL 3
REMARK VINA RESULT:      -5.4      3.613      7.685
REMARK  Name = 
REMARK  5 active torsions:
REMARK  status: ('A' for Active; 'I' for Inactive)
REMARK    1  A    between atoms: C_2  and  C_3
REMARK    2  A    between atoms: C_2  and  C_17
REMARK    3  A    between atoms: C_4  and  C_5
REMARK    4  A    between atoms: C_5  and  C_6
REMARK    5  A    between atoms: C_6  and  N_7
REMARK                            x       y       z     vdW  Elec       q    Type
REMARK                         _______ _______ _______ _____ _____    ______ ____
ROOT
ATOM      1  C   UNL     1     -16.573  12.703  -8.391  0.00  0.00    +0.000 C 
ATOM      2  C   UNL     1     -15.562  11.765  -8.981  0.00  0.00    +0.000 C 
ATOM      3  C   UNL     1     -16.284  10.814  -9.888  0.00  0.00    +0.000 C 
ATOM      4  C   UNL     1     -17.743  11.165  -9.859  0.00  0.00    +0.000 A 
ATOM      5  C   UNL     1     -18.932  10.571 -10.556  0.00  0.00    +0.000 A 
ATOM      6  C   UNL     1     -20.299  11.145 -10.327  0.00  0.00    +0.000 A 
ATOM      7  C   UNL     1     -20.477  12.312  -9.402  0.00  0.00    +0.000 A 
ATOM      8  C   UNL     1     -19.288  12.906  -8.705  0.00  0.00    +0.000 A 
ATOM      9  C   UNL     1     -17.922  12.332  -8.934  0.00  0.00    +0.000 A 
ENDROOT
BRANCH   1  11
ATOM     10  C   UNL     1     -16.363  13.568  -5.950  0.00  0.00    +0.000 C 
ATOM     11  C   UNL     1     -16.287  13.816  -7.428  0.00  0.00    +0.000 C 
BRANCH  11  12
ATOM     12  C   UNL     1     -15.926  15.179  -7.940  0.00  0.00    +0.000 A 
ATOM     13  C   UNL     1     -16.001  15.470  -9.411  0.00  0.00    +0.000 A 
ATOM     14  C   UNL     1     -15.640  16.833  -9.923  0.00  0.00    +0.000 A 
ATOM     15  C   UNL     1     -15.204  17.903  -8.968  0.00  0.00    +0.000 A 
ATOM     16  C   UNL     1     -15.129  17.612  -7.499  0.00  0.00    +0.000 A 
ATOM     17  N   UNL     1     -15.491  16.249  -6.985  0.00  0.00    +0.000 NA
ENDBRANCH  11  12
ENDBRANCH   1  11
BRANCH   2  18
ATOM     18  C   UNL     1     -14.087  11.776  -8.710  0.00  0.00    +0.000 C 
BRANCH  18  19
ATOM     19  C   UNL     1     -13.250  12.937  -9.162  0.00  0.00    +0.000 C 
BRANCH  19  20
ATOM     20  N   UNL     1     -12.697  13.900  -8.154  0.00  0.00    +0.000 NA
ATOM     21  C   UNL     1     -12.704  13.547  -6.697  0.00  0.00    +0.000 C 
ATOM     22  C   UNL     1     -12.138  15.217  -8.604  0.00  0.00    +0.000 C 
ENDBRANCH  19  20
ENDBRANCH  18  19
ENDBRANCH   2  18
TORSDOF 5
ENDMDL
MODEL 4
REMARK VINA RESULT:      -5.4      1.469      2.076
REMARK  Name = 
REMARK  5 active torsions:
REMARK  status: ('A' for Active; 'I' for Inactive)
REMARK    1  A    between atoms: C_2  and  C_3
REMARK    2  A    between atoms: C_2  and  C_17
REMARK    3  A    between atoms: C_4  and  C_5
REMARK    4  A    between atoms: C_5  and  C_6
REMARK    5  A    between atoms: C_6  and  N_7
REMARK                            x       y       z     vdW  Elec       q    Type
REMARK                         _______ _______ _______ _____ _____    ______ ____
ROOT
ATOM      1  C   UNL     1     -18.818  12.090  -9.695  0.00  0.00    +0.000 C 
ATOM      2  C   UNL     1     -19.571  12.974  -8.745  0.00  0.00    +0.000 C 
ATOM      3  C   UNL     1     -18.611  13.453  -7.696  0.00  0.00    +0.000 C 
ATOM      4  C   UNL     1     -17.264  12.865  -7.998  0.00  0.00    +0.000 A 
ATOM      5  C   UNL     1     -15.938  12.988  -7.308  0.00  0.00    +0.000 A 
ATOM      6  C   UNL     1     -14.740  12.269  -7.853  0.00  0.00    +0.000 A 
ATOM      7  C   UNL     1     -14.867  11.427  -9.087  0.00  0.00    +0.000 A 
ATOM      8  C   UNL     1     -16.193  11.304  -9.778  0.00  0.00    +0.000 A 
ATOM      9  C   UNL     1     -17.392  12.023  -9.233  0.00  0.00    +0.000 A 
ENDROOT
BRANCH   1  11
ATOM     10  C   UNL     1     -19.336  12.057 -12.240  0.00  0.00    +0.000 C 
ATOM     11  C   UNL     1     -19.389  11.396 -10.895  0.00  0.00    +0.000 C 
BRANCH  11  12
ATOM     12  C   UNL     1     -20.014  10.040 -10.751  0.00  0.00    +0.000 A 
ATOM     13  C   UNL     1     -19.223   8.810 -11.090  0.00  0.00    +0.000 A 
ATOM     14  C   UNL     1     -19.848   7.454 -10.947  0.00  0.00    +0.000 A 
ATOM     15  C   UNL     1     -21.261   7.327 -10.463  0.00  0.00    +0.000 A 
ATOM     16  C   UNL     1     -22.052   8.555 -10.124  0.00  0.00    +0.000 A 
ATOM     17  N   UNL     1     -21.427   9.912 -10.268  0.00  0.00    +0.000 NA
ENDBRANCH  11  12
ENDBRANCH   1  11
BRANCH   2  18
ATOM     18  C   UNL     1     -21.028  13.318  -8.829  0.00  0.00    +0.000 C 
BRANCH  18  19
ATOM     19  C   UNL     1     -21.450  14.711  -9.191  0.00  0.00    +0.000 C 
BRANCH  19  20
ATOM     20  N   UNL     1     -20.490  15.628  -9.889  0.00  0.00    +0.000 NA
ATOM     21  C   UNL     1     -19.757  16.680  -9.111  0.00  0.00    +0.000 C 
ATOM     22  C   UNL     1     -20.263  15.493 -11.366  0.00  0.00    +0.000 C 
ENDBRANCH  19  20
ENDBRANCH  18  19
ENDBRANCH   2  18
TORSDOF 5
ENDMDL
MODEL 5
REMARK VINA RESULT:      -5.4     17.917     20.585
REMARK  Name = 
REMARK  5 active torsions:
REMARK  status: ('A' for Active; 'I' for Inactive)
REMARK    1  A    between atoms: C_2  and  C_3
REMARK    2  A    between atoms: C_2  and  C_17
REMARK    3  A    between atoms: C_4  and  C_5
REMARK    4  A    between atoms: C_5  and  C_6
REMARK    5  A    between atoms: C_6  and  N_7
REMARK                            x       y       z     vdW  Elec       q    Type
REMARK                         _______ _______ _______ _____ _____    ______ ____
ROOT
ATOM      1  C   UNL     1      -2.030   9.088   2.020  0.00  0.00    +0.000 C 
ATOM      2  C   UNL     1      -2.115  10.565   1.771  0.00  0.00    +0.000 C 
ATOM      3  C   UNL     1      -1.259  10.887   0.582  0.00  0.00    +0.000 C 
ATOM      4  C   UNL     1      -0.645   9.607   0.095  0.00  0.00    +0.000 A 
ATOM      5  C   UNL     1       0.287   9.311  -1.043  0.00  0.00    +0.000 A 
ATOM      6  C   UNL     1       0.742   7.904  -1.293  0.00  0.00    +0.000 A 
ATOM      7  C   UNL     1       0.266   6.793  -0.405  0.00  0.00    +0.000 A 
ATOM      8  C   UNL     1      -0.666   7.089   0.733  0.00  0.00    +0.000 A 
ATOM      9  C   UNL     1      -1.121   8.496   0.983  0.00  0.00    +0.000 A 
ENDROOT
BRANCH   1  11
ATOM     10  C   UNL     1      -1.935   7.706   4.216  0.00  0.00    +0.000 C 
ATOM     11  C   UNL     1      -2.730   8.336   3.111  0.00  0.00    +0.000 C 
BRANCH  11  12
ATOM     12  C   UNL     1      -4.224   8.212   3.099  0.00  0.00    +0.000 A 
ATOM     13  C   UNL     1      -4.998   8.595   1.871  0.00  0.00    +0.000 A 
ATOM     14  C   UNL     1      -6.493   8.471   1.859  0.00  0.00    +0.000 A 
ATOM     15  C   UNL     1      -7.214   7.964   3.072  0.00  0.00    +0.000 A 
ATOM     16  C   UNL     1      -6.441   7.582   4.298  0.00  0.00    +0.000 A 
ATOM     17  N   UNL     1      -4.946   7.706   4.312  0.00  0.00    +0.000 NA
ENDBRANCH  11  12
ENDBRANCH   1  11
BRANCH   2  18
ATOM     18  C   UNL     1      -2.916  11.549   2.572  0.00  0.00    +0.000 C 
BRANCH  18  19
ATOM     19  C   UNL     1      -2.736  11.628   4.059  0.00  0.00    +0.000 C 
BRANCH  19  20
ATOM     20  N   UNL     1      -3.852  11.216   4.973  0.00  0.00    +0.000 NA
ATOM     21  C   UNL     1      -3.544  10.549   6.280  0.00  0.00    +0.000 C 
ATOM     22  C   UNL     1      -5.276  11.472   4.579  0.00  0.00    +0.000 C 
ENDBRANCH  19  20
ENDBRANCH  18  19
ENDBRANCH   2  18
TORSDOF 5
ENDMDL
MODEL 6
REMARK VINA RESULT:      -5.3      7.797     11.601
REMARK  Name = 
REMARK  5 active torsions:
REMARK  status: ('A' for Active; 'I' for Inactive)
REMARK    1  A    between atoms: C_2  and  C_3
REMARK    2  A    between atoms: C_2  and  C_17
REMARK    3  A    between atoms: C_4  and  C_5
REMARK    4  A    between atoms: C_5  and  C_6
REMARK    5  A    between atoms: C_6  and  N_7
REMARK                            x       y       z     vdW  Elec       q    Type
REMARK                         _______ _______ _______ _____ _____    ______ ____
ROOT
ATOM      1  C   UNL     1      -9.104  15.624  -7.473  0.00  0.00    +0.000 C 
ATOM      2  C   UNL     1      -8.412  14.927  -8.607  0.00  0.00    +0.000 C 
ATOM      3  C   UNL     1      -7.036  14.545  -8.147  0.00  0.00    +0.000 C 
ATOM      4  C   UNL     1      -6.879  15.006  -6.727  0.00  0.00    +0.000 A 
ATOM      5  C   UNL     1      -5.736  14.904  -5.761  0.00  0.00    +0.000 A 
ATOM      6  C   UNL     1      -5.872  15.470  -4.378  0.00  0.00    +0.000 A 
ATOM      7  C   UNL     1      -7.149  16.136  -3.962  0.00  0.00    +0.000 A 
ATOM      8  C   UNL     1      -8.292  16.238  -4.929  0.00  0.00    +0.000 A 
ATOM      9  C   UNL     1      -8.156  15.673  -6.311  0.00  0.00    +0.000 A 
ENDROOT
BRANCH   1  11
ATOM     10  C   UNL     1     -10.719  17.659  -7.468  0.00  0.00    +0.000 C 
ATOM     11  C   UNL     1     -10.499  16.176  -7.497  0.00  0.00    +0.000 C 
BRANCH  11  12
ATOM     12  C   UNL     1     -11.673  15.245  -7.548  0.00  0.00    +0.000 A 
ATOM     13  C   UNL     1     -12.039  14.431  -6.342  0.00  0.00    +0.000 A 
ATOM     14  C   UNL     1     -13.214  13.500  -6.393  0.00  0.00    +0.000 A 
ATOM     15  C   UNL     1     -14.023  13.382  -7.650  0.00  0.00    +0.000 A 
ATOM     16  C   UNL     1     -13.657  14.195  -8.856  0.00  0.00    +0.000 A 
ATOM     17  N   UNL     1     -12.482  15.126  -8.805  0.00  0.00    +0.000 NA
ENDBRANCH  11  12
ENDBRANCH   1  11
BRANCH   2  18
ATOM     18  C   UNL     1      -8.993  14.660  -9.963  0.00  0.00    +0.000 C 
BRANCH  18  19
ATOM     19  C   UNL     1      -8.372  15.277 -11.181  0.00  0.00    +0.000 C 
BRANCH  19  20
ATOM     20  N   UNL     1      -9.063  16.408 -11.884  0.00  0.00    +0.000 NA
ATOM     21  C   UNL     1      -9.860  17.405 -11.097  0.00  0.00    +0.000 C 
ATOM     22  C   UNL     1      -8.957  16.540 -13.375  0.00  0.00    +0.000 C 
ENDBRANCH  19  20
ENDBRANCH  18  19
ENDBRANCH   2  18
TORSDOF 5
ENDMDL
MODEL 7
REMARK VINA RESULT:      -5.3      2.428      6.481
REMARK  Name = 
REMARK  5 active torsions:
REMARK  status: ('A' for Active; 'I' for Inactive)
REMARK    1  A    between atoms: C_2  and  C_3
REMARK    2  A    between atoms: C_2  and  C_17
REMARK    3  A    between atoms: C_4  and  C_5
REMARK    4  A    between atoms: C_5  and  C_6
REMARK    5  A    between atoms: C_6  and  N_7
REMARK                            x       y       z     vdW  Elec       q    Type
REMARK                         _______ _______ _______ _____ _____    ______ ____
ROOT
ATOM      1  C   UNL     1     -19.000  13.393  -8.051  0.00  0.00    +0.000 C 
ATOM      2  C   UNL     1     -17.524  13.127  -8.027  0.00  0.00    +0.000 C 
ATOM      3  C   UNL     1     -17.235  12.019  -8.995  0.00  0.00    +0.000 C 
ATOM      4  C   UNL     1     -18.534  11.599  -9.618  0.00  0.00    +0.000 A 
ATOM      5  C   UNL     1     -18.864  10.553 -10.641  0.00  0.00    +0.000 A 
ATOM      6  C   UNL     1     -20.285  10.356 -11.081  0.00  0.00    +0.000 A 
ATOM      7  C   UNL     1     -21.375  11.205 -10.498  0.00  0.00    +0.000 A 
ATOM      8  C   UNL     1     -21.045  12.251  -9.474  0.00  0.00    +0.000 A 
ATOM      9  C   UNL     1     -19.624  12.448  -9.035  0.00  0.00    +0.000 A 
ENDROOT
BRANCH   1  11
ATOM     10  C   UNL     1     -19.589  15.877  -7.573  0.00  0.00    +0.000 C 
ATOM     11  C   UNL     1     -19.724  14.422  -7.236  0.00  0.00    +0.000 C 
BRANCH  11  12
ATOM     12  C   UNL     1     -20.585  13.997  -6.083  0.00  0.00    +0.000 A 
ATOM     13  C   UNL     1     -20.052  14.073  -4.682  0.00  0.00    +0.000 A 
ATOM     14  C   UNL     1     -20.912  13.648  -3.529  0.00  0.00    +0.000 A 
ATOM     15  C   UNL     1     -22.304  13.148  -3.776  0.00  0.00    +0.000 A 
ATOM     16  C   UNL     1     -22.836  13.071  -5.176  0.00  0.00    +0.000 A 
ATOM     17  N   UNL     1     -21.976  13.496  -6.329  0.00  0.00    +0.000 NA
ENDBRANCH  11  12
ENDBRANCH   1  11
BRANCH   2  18
ATOM     18  C   UNL     1     -16.513  13.845  -7.182  0.00  0.00    +0.000 C 
BRANCH  18  19
ATOM     19  C   UNL     1     -15.452  13.069  -6.461  0.00  0.00    +0.000 C 
BRANCH  19  20
ATOM     20  N   UNL     1     -14.035  13.100  -6.952  0.00  0.00    +0.000 NA
ATOM     21  C   UNL     1     -13.655  12.348  -8.194  0.00  0.00    +0.000 C 
ATOM     22  C   UNL     1     -12.998  13.882  -6.202  0.00  0.00    +0.000 C 
ENDBRANCH  19  20
ENDBRANCH  18  19
ENDBRANCH   2  18
TORSDOF 5
ENDMDL
MODEL 8
REMARK VINA RESULT:      -5.3      1.277      5.128
REMARK  Name = 
REMARK  5 active torsions:
REMARK  status: ('A' for Active; 'I' for Inactive)
REMARK    1  A    between atoms: C_2  and  C_3
REMARK    2  A    between atoms: C_2  and  C_17
REMARK    3  A    between atoms: C_4  and  C_5
REMARK    4  A    between atoms: C_5  and  C_6
REMARK    5  A    between atoms: C_6  and  N_7
REMARK                            x       y       z     vdW  Elec       q    Type
REMARK                         _______ _______ _______ _____ _____    ______ ____
ROOT
ATOM      1  C   UNL     1     -18.735  13.086  -8.633  0.00  0.00    +0.000 C 
ATOM      2  C   UNL     1     -18.920  11.975  -9.624  0.00  0.00    +0.000 C 
ATOM      3  C   UNL     1     -17.614  11.252  -9.762  0.00  0.00    +0.000 C 
ATOM      4  C   UNL     1     -16.619  11.916  -8.856  0.00  0.00    +0.000 A 
ATOM      5  C   UNL     1     -15.173  11.635  -8.576  0.00  0.00    +0.000 A 
ATOM      6  C   UNL     1     -14.419  12.487  -7.598  0.00  0.00    +0.000 A 
ATOM      7  C   UNL     1     -15.111  13.620  -6.901  0.00  0.00    +0.000 A 
ATOM      8  C   UNL     1     -16.558  13.901  -7.181  0.00  0.00    +0.000 A 
ATOM      9  C   UNL     1     -17.312  13.049  -8.158  0.00  0.00    +0.000 A 
ENDROOT
BRANCH   1  11
ATOM     10  C   UNL     1     -20.093  15.262  -9.038  0.00  0.00    +0.000 C 
ATOM     11  C   UNL     1     -19.785  14.061  -8.194  0.00  0.00    +0.000 C 
BRANCH  11  12
ATOM     12  C   UNL     1     -20.529  13.837  -6.911  0.00  0.00    +0.000 A 
ATOM     13  C   UNL     1     -19.869  14.145  -5.599  0.00  0.00    +0.000 A 
ATOM     14  C   UNL     1     -20.612  13.920  -4.316  0.00  0.00    +0.000 A 
ATOM     15  C   UNL     1     -22.014  13.389  -4.343  0.00  0.00    +0.000 A 
ATOM     16  C   UNL     1     -22.674  13.081  -5.655  0.00  0.00    +0.000 A 
ATOM     17  N   UNL     1     -21.930  13.305  -6.939  0.00  0.00    +0.000 NA
ENDBRANCH  11  12
ENDBRANCH   1  11
BRANCH   2  18
ATOM     18  C   UNL     1     -20.191  11.646 -10.350  0.00  0.00    +0.000 C 
BRANCH  18  19
ATOM     19  C   UNL     1     -20.203  10.559 -11.385  0.00  0.00    +0.000 C 
BRANCH  19  20
ATOM     20  N   UNL     1     -20.343   9.126 -10.966  0.00  0.00    +0.000 NA
ATOM     21  C   UNL     1     -21.626   8.645 -10.355  0.00  0.00    +0.000 C 
ATOM     22  C   UNL     1     -19.200   8.174 -11.157  0.00  0.00    +0.000 C 
ENDBRANCH  19  20
ENDBRANCH  18  19
ENDBRANCH   2  18
TORSDOF 5
ENDMDL
MODEL 9
REMARK VINA RESULT:      -5.3      8.693     12.408
REMARK  Name = 
REMARK  5 active torsions:
REMARK  status: ('A' for Active; 'I' for Inactive)
REMARK    1  A    between atoms: C_2  and  C_3
REMARK    2  A    between atoms: C_2  and  C_17
REMARK    3  A    between atoms: C_4  and  C_5
REMARK    4  A    between atoms: C_5  and  C_6
REMARK    5  A    between atoms: C_6  and  N_7
REMARK                            x       y       z     vdW  Elec       q    Type
REMARK                         _______ _______ _______ _____ _____    ______ ____
ROOT
ATOM      1  C   UNL     1      -8.302  15.447  -7.941  0.00  0.00    +0.000 C 
ATOM      2  C   UNL     1      -9.309  15.551  -6.834  0.00  0.00    +0.000 C 
ATOM      3  C   UNL     1      -8.582  15.413  -5.529  0.00  0.00    +0.000 C 
ATOM      4  C   UNL     1      -7.124  15.223  -5.830  0.00  0.00    +0.000 A 
ATOM      5  C   UNL     1      -5.933  15.034  -4.939  0.00  0.00    +0.000 A 
ATOM      6  C   UNL     1      -4.568  14.866  -5.539  0.00  0.00    +0.000 A 
ATOM      7  C   UNL     1      -4.395  14.887  -7.028  0.00  0.00    +0.000 A 
ATOM      8  C   UNL     1      -5.587  15.076  -7.919  0.00  0.00    +0.000 A 
ATOM      9  C   UNL     1      -6.952  15.244  -7.320  0.00  0.00    +0.000 A 
ENDROOT
BRANCH   1  11
ATOM     10  C   UNL     1      -9.148  14.340 -10.133  0.00  0.00    +0.000 C 
ATOM     11  C   UNL     1      -8.594  15.531  -9.409  0.00  0.00    +0.000 C 
BRANCH  11  12
ATOM     12  C   UNL     1      -8.331  16.805 -10.155  0.00  0.00    +0.000 A 
ATOM     13  C   UNL     1      -7.476  17.872  -9.538  0.00  0.00    +0.000 A 
ATOM     14  C   UNL     1      -7.213  19.147 -10.284  0.00  0.00    +0.000 A 
ATOM     15  C   UNL     1      -7.804  19.354 -11.646  0.00  0.00    +0.000 A 
ATOM     16  C   UNL     1      -8.659  18.288 -12.263  0.00  0.00    +0.000 A 
ATOM     17  N   UNL     1      -8.922  17.013 -11.517  0.00  0.00    +0.000 NA
ENDBRANCH  11  12
ENDBRANCH   1  11
BRANCH   2  18
ATOM     18  C   UNL     1     -10.786  15.757  -7.002  0.00  0.00    +0.000 C 
BRANCH  18  19
ATOM     19  C   UNL     1     -11.753  14.790  -6.387  0.00  0.00    +0.000 C 
BRANCH  19  20
ATOM     20  N   UNL     1     -12.736  14.059  -7.252  0.00  0.00    +0.000 NA
ATOM     21  C   UNL     1     -13.879  13.316  -6.626  0.00  0.00    +0.000 C 
ATOM     22  C   UNL     1     -12.577  14.071  -8.743  0.00  0.00    +0.000 C 
ENDBRANCH  19  20
ENDBRANCH  18  19
ENDBRANCH   2  18
TORSDOF 5
ENDMDL
