MODEL 1
REMARK VINA RESULT:      -7.1      0.000      0.000
REMARK  Name = 
REMARK  1 active torsions:
REMARK  status: ('A' for Active; 'I' for Inactive)
REMARK    1  A    between atoms: O_2  and  C_3
REMARK                            x       y       z     vdW  Elec       q    Type
REMARK                         _______ _______ _______ _____ _____    ______ ____
ROOT
ATOM      1  C   UNL     1     -13.874  13.706  -6.744  0.00  0.00    +0.000 A 
ATOM      2  C   UNL     1     -13.115  12.779  -7.647  0.00  0.00    +0.000 A 
ATOM      3  C   UNL     1     -13.848  11.953  -8.661  0.00  0.00    +0.000 A 
ATOM      4  C   UNL     1     -15.340  12.052  -8.773  0.00  0.00    +0.000 A 
ATOM      5  C   UNL     1     -16.100  12.978  -7.870  0.00  0.00    +0.000 A 
ATOM      6  C   UNL     1     -15.367  13.805  -6.856  0.00  0.00    +0.000 A 
ATOM      7  C   UNL     1     -17.592  13.078  -7.982  0.00  0.00    +0.000 C 
ATOM      8  C   UNL     1     -18.352  14.004  -7.079  0.00  0.00    +0.000 C 
ATOM      9  C   UNL     1     -19.844  14.104  -7.191  0.00  0.00    +0.000 C 
ATOM     10  C   UNL     1     -20.577  13.277  -8.206  0.00  0.00    +0.000 C 
ATOM     11  C   UNL     1     -19.818  12.351  -9.109  0.00  0.00    +0.000 C 
ATOM     12  C   UNL     1     -18.325  12.251  -8.997  0.00  0.00    +0.000 C 
ATOM     13  C   UNL     1     -17.566  11.325  -9.900  0.00  0.00    +0.000 C 
ATOM     14  C   UNL     1     -16.073  11.225  -9.788  0.00  0.00    +0.000 C 
ATOM     15  N   UNL     1     -17.030  11.727  -9.380  0.00  0.00    +0.000 NA
ATOM     16  C   UNL     1     -19.791  10.598 -11.026  0.00  0.00    +0.000 C 
ATOM     17  C   UNL     1     -17.728  12.211  -8.952  0.00  0.00    +0.000 C 
ATOM     18  C   UNL     1     -17.044  12.604  -8.421  0.00  0.00    +0.000 C 
ENDROOT
BRANCH   1  20
ATOM     19  C   UNL     1     -13.676  15.876  -5.329  0.00  0.00    +0.000 C 
ATOM     20  O   UNL     1     -13.142  14.532  -5.729  0.00  0.00    +0.000 OA
ENDBRANCH   1  20
TORSDOF 1
ENDMDL
MODEL 2
REMARK VINA RESULT:      -6.8      2.585      6.025
REMARK  Name = 
REMARK  1 active torsions:
REMARK  status: ('A' for Active; 'I' for Inactive)
REMARK    1  A    between atoms: O_2  and  C_3
REMARK                            x       y       z     vdW  Elec       q    Type
REMARK                         _______ _______ _______ _____ _____    ______ ____
ROOT
ATOM      1  C   UNL     1     -19.740  10.674 -10.672  0.00  0.00    +0.000 A 
ATOM      2  C   UNL     1     -20.866  11.477 -10.091  0.00  0.00    +0.000 A 
ATOM      3  C   UNL     1     -20.583  12.532  -9.063  0.00  0.00    +0.000 A 
ATOM      4  C   UNL     1     -19.174  12.784  -8.615  0.00  0.00    +0.000 A 
ATOM      5  C   UNL     1     -18.048  11.981  -9.195  0.00  0.00    +0.000 A 
ATOM      6  C   UNL     1     -18.331  10.927 -10.224  0.00  0.00    +0.000 A 
ATOM      7  C   UNL     1     -16.639  12.233  -8.747  0.00  0.00    +0.000 C 
ATOM      8  C   UNL     1     -15.512  11.431  -9.328  0.00  0.00    +0.000 C 
ATOM      9  C   UNL     1     -14.103  11.683  -8.880  0.00  0.00    +0.000 C 
ATOM     10  C   UNL     1     -13.820  12.738  -7.851  0.00  0.00    +0.000 C 
ATOM     11  C   UNL     1     -14.947  13.540  -7.271  0.00  0.00    +0.000 C 
ATOM     12  C   UNL     1     -16.356  13.288  -7.719  0.00  0.00    +0.000 C 
ATOM     13  C   UNL     1     -17.482  14.090  -7.138  0.00  0.00    +0.000 C 
ATOM     14  C   UNL     1     -18.892  13.838  -7.586  0.00  0.00    +0.000 C 
ATOM     15  N   UNL     1     -17.783  13.534  -7.703  0.00  0.00    +0.000 NA
ATOM     16  C   UNL     1     -15.791  15.397  -5.662  0.00  0.00    +0.000 C 
ATOM     17  C   UNL     1     -16.920  13.187  -7.898  0.00  0.00    +0.000 C 
ATOM     18  C   UNL     1     -17.361  12.606  -8.508  0.00  0.00    +0.000 C 
ENDROOT
BRANCH   1  20
ATOM     19  C   UNL     1     -20.407   8.236 -11.269  0.00  0.00    +0.000 C 
ATOM     20  O   UNL     1     -20.022   9.620 -11.700  0.00  0.00    +0.000 OA
ENDBRANCH   1  20
TORSDOF 1
ENDMDL
MODEL 3
REMARK VINA RESULT:      -6.7      1.538      3.345
REMARK  Name = 
REMARK  1 active torsions:
REMARK  status: ('A' for Active; 'I' for Inactive)
REMARK    1  A    between atoms: O_2  and  C_3
REMARK                            x       y       z     vdW  Elec       q    Type
REMARK                         _______ _______ _______ _____ _____    ______ ____
ROOT
ATOM      1  C   UNL     1     -14.569  12.361  -8.148  0.00  0.00    +0.000 A 
ATOM      2  C   UNL     1     -14.612  13.393  -7.059  0.00  0.00    +0.000 A 
ATOM      3  C   UNL     1     -15.922  13.999  -6.652  0.00  0.00    +0.000 A 
ATOM      4  C   UNL     1     -17.190  13.574  -7.332  0.00  0.00    +0.000 A 
ATOM      5  C   UNL     1     -17.147  12.542  -8.421  0.00  0.00    +0.000 A 
ATOM      6  C   UNL     1     -15.837  11.936  -8.828  0.00  0.00    +0.000 A 
ATOM      7  C   UNL     1     -18.414  12.117  -9.102  0.00  0.00    +0.000 C 
ATOM      8  C   UNL     1     -18.371  11.086 -10.190  0.00  0.00    +0.000 C 
ATOM      9  C   UNL     1     -19.638  10.661 -10.871  0.00  0.00    +0.000 C 
ATOM     10  C   UNL     1     -20.948  11.267 -10.463  0.00  0.00    +0.000 C 
ATOM     11  C   UNL     1     -20.991  12.298  -9.375  0.00  0.00    +0.000 C 
ATOM     12  C   UNL     1     -19.724  12.723  -8.694  0.00  0.00    +0.000 C 
ATOM     13  C   UNL     1     -19.767  13.755  -7.606  0.00  0.00    +0.000 C 
ATOM     14  C   UNL     1     -18.500  14.180  -6.925  0.00  0.00    +0.000 C 
ATOM     15  N   UNL     1     -18.968  13.500  -7.732  0.00  0.00    +0.000 NA
ATOM     16  C   UNL     1     -22.344  13.936  -7.879  0.00  0.00    +0.000 C 
ATOM     17  C   UNL     1     -19.217  12.894  -8.421  0.00  0.00    +0.000 C 
ATOM     18  C   UNL     1     -18.292  12.681  -8.481  0.00  0.00    +0.000 C 
ENDROOT
BRANCH   1  20
ATOM     19  C   UNL     1     -12.389  12.454  -9.558  0.00  0.00    +0.000 C 
ATOM     20  O   UNL     1     -13.259  11.755  -8.555  0.00  0.00    +0.000 OA
ENDBRANCH   1  20
TORSDOF 1
ENDMDL
MODEL 4
REMARK VINA RESULT:      -6.4      2.594      5.971
REMARK  Name = 
REMARK  1 active torsions:
REMARK  status: ('A' for Active; 'I' for Inactive)
REMARK    1  A    between atoms: O_2  and  C_3
REMARK                            x       y       z     vdW  Elec       q    Type
REMARK                         _______ _______ _______ _____ _____    ______ ____
ROOT
ATOM      1  C   UNL     1     -21.143  13.006  -8.747  0.00  0.00    +0.000 A 
ATOM      2  C   UNL     1     -21.380  13.954  -7.609  0.00  0.00    +0.000 A 
ATOM      3  C   UNL     1     -20.225  14.435  -6.782  0.00  0.00    +0.000 A 
ATOM      4  C   UNL     1     -18.834  13.968  -7.091  0.00  0.00    +0.000 A 
ATOM      5  C   UNL     1     -18.597  13.020  -8.229  0.00  0.00    +0.000 A 
ATOM      6  C   UNL     1     -19.752  12.539  -9.057  0.00  0.00    +0.000 A 
ATOM      7  C   UNL     1     -17.206  12.552  -8.539  0.00  0.00    +0.000 C 
ATOM      8  C   UNL     1     -16.969  11.604  -9.677  0.00  0.00    +0.000 C 
ATOM      9  C   UNL     1     -15.578  11.136  -9.987  0.00  0.00    +0.000 C 
ATOM     10  C   UNL     1     -14.424  11.617  -9.159  0.00  0.00    +0.000 C 
ATOM     11  C   UNL     1     -14.660  12.566  -8.021  0.00  0.00    +0.000 C 
ATOM     12  C   UNL     1     -16.051  13.033  -7.711  0.00  0.00    +0.000 C 
ATOM     13  C   UNL     1     -16.288  13.982  -6.573  0.00  0.00    +0.000 C 
ATOM     14  C   UNL     1     -17.679  14.449  -6.264  0.00  0.00    +0.000 C 
ATOM     15  N   UNL     1     -17.023  13.794  -6.952  0.00  0.00    +0.000 NA
ATOM     16  C   UNL     1     -13.742  13.995  -6.055  0.00  0.00    +0.000 C 
ATOM     17  C   UNL     1     -16.608  13.220  -7.587  0.00  0.00    +0.000 C 
ATOM     18  C   UNL     1     -17.481  13.079  -7.935  0.00  0.00    +0.000 C 
ENDROOT
BRANCH   1  20
ATOM     19  C   UNL     1     -22.805  11.123  -9.411  0.00  0.00    +0.000 C 
ATOM     20  O   UNL     1     -22.298  12.525  -9.575  0.00  0.00    +0.000 OA
ENDBRANCH   1  20
TORSDOF 1
ENDMDL
MODEL 5
REMARK VINA RESULT:      -6.3      2.490      5.259
REMARK  Name = 
REMARK  1 active torsions:
REMARK  status: ('A' for Active; 'I' for Inactive)
REMARK    1  A    between atoms: O_2  and  C_3
REMARK                            x       y       z     vdW  Elec       q    Type
REMARK                         _______ _______ _______ _____ _____    ______ ____
ROOT
ATOM      1  C   UNL     1     -21.123  12.308  -9.206  0.00  0.00    +0.000 A 
ATOM      2  C   UNL     1     -20.783  11.268 -10.232  0.00  0.00    +0.000 A 
ATOM      3  C   UNL     1     -19.352  10.889 -10.470  0.00  0.00    +0.000 A 
ATOM      4  C   UNL     1     -18.260  11.550  -9.682  0.00  0.00    +0.000 A 
ATOM      5  C   UNL     1     -18.599  12.590  -8.657  0.00  0.00    +0.000 A 
ATOM      6  C   UNL     1     -20.031  12.969  -8.418  0.00  0.00    +0.000 A 
ATOM      7  C   UNL     1     -17.507  13.251  -7.869  0.00  0.00    +0.000 C 
ATOM      8  C   UNL     1     -17.846  14.291  -6.843  0.00  0.00    +0.000 C 
ATOM      9  C   UNL     1     -16.754  14.952  -6.056  0.00  0.00    +0.000 C 
ATOM     10  C   UNL     1     -15.323  14.573  -6.294  0.00  0.00    +0.000 C 
ATOM     11  C   UNL     1     -14.983  13.533  -7.320  0.00  0.00    +0.000 C 
ATOM     12  C   UNL     1     -16.076  12.872  -8.107  0.00  0.00    +0.000 C 
ATOM     13  C   UNL     1     -15.736  11.831  -9.133  0.00  0.00    +0.000 C 
ATOM     14  C   UNL     1     -16.828  11.170  -9.921  0.00  0.00    +0.000 C 
ATOM     15  N   UNL     1     -16.576  11.946  -9.103  0.00  0.00    +0.000 NA
ATOM     16  C   UNL     1     -13.212  12.113  -8.584  0.00  0.00    +0.000 C 
ATOM     17  C   UNL     1     -16.512  12.607  -8.423  0.00  0.00    +0.000 C 
ATOM     18  C   UNL     1     -17.461  12.656  -8.471  0.00  0.00    +0.000 C 
ENDROOT
BRANCH   1  20
ATOM     19  C   UNL     1     -23.199  12.391  -7.645  0.00  0.00    +0.000 C 
ATOM     20  O   UNL     1     -22.554  12.687  -8.967  0.00  0.00    +0.000 OA
ENDBRANCH   1  20
TORSDOF 1
ENDMDL
MODEL 6
REMARK VINA RESULT:      -5.8     16.215     18.946
REMARK  Name = 
REMARK  1 active torsions:
REMARK  status: ('A' for Active; 'I' for Inactive)
REMARK    1  A    between atoms: O_2  and  C_3
REMARK                            x       y       z     vdW  Elec       q    Type
REMARK                         _______ _______ _______ _____ _____    ______ ____
ROOT
ATOM      1  C   UNL     1      -4.624   7.685   8.313  0.00  0.00    +0.000 A 
ATOM      2  C   UNL     1      -3.278   8.313   8.519  0.00  0.00    +0.000 A 
ATOM      3  C   UNL     1      -2.572   8.968   7.369  0.00  0.00    +0.000 A 
ATOM      4  C   UNL     1      -3.212   8.994   6.013  0.00  0.00    +0.000 A 
ATOM      5  C   UNL     1      -4.558   8.366   5.807  0.00  0.00    +0.000 A 
ATOM      6  C   UNL     1      -5.265   7.711   6.957  0.00  0.00    +0.000 A 
ATOM      7  C   UNL     1      -5.199   8.392   4.450  0.00  0.00    +0.000 C 
ATOM      8  C   UNL     1      -6.545   7.764   4.245  0.00  0.00    +0.000 C 
ATOM      9  C   UNL     1      -7.186   7.790   2.888  0.00  0.00    +0.000 C 
ATOM     10  C   UNL     1      -6.480   8.445   1.738  0.00  0.00    +0.000 C 
ATOM     11  C   UNL     1      -5.133   9.073   1.944  0.00  0.00    +0.000 C 
ATOM     12  C   UNL     1      -4.493   9.047   3.300  0.00  0.00    +0.000 C 
ATOM     13  C   UNL     1      -3.146   9.675   3.506  0.00  0.00    +0.000 C 
ATOM     14  C   UNL     1      -2.506   9.649   4.862  0.00  0.00    +0.000 C 
ATOM     15  N   UNL     1      -3.427   9.345   4.235  0.00  0.00    +0.000 NA
ATOM     16  C   UNL     1      -3.081  10.356   1.000  0.00  0.00    +0.000 C 
ATOM     17  C   UNL     1      -4.236   9.036   3.843  0.00  0.00    +0.000 C 
ATOM     18  C   UNL     1      -4.454   8.703   4.707  0.00  0.00    +0.000 C 
ENDROOT
BRANCH   1  20
ATOM     19  C   UNL     1      -5.006   5.614   9.835  0.00  0.00    +0.000 C 
ATOM     20  O   UNL     1      -5.330   7.031   9.463  0.00  0.00    +0.000 OA
ENDBRANCH   1  20
TORSDOF 1
ENDMDL
MODEL 7
REMARK VINA RESULT:      -5.7      7.885      9.954
REMARK  Name = 
REMARK  1 active torsions:
REMARK  status: ('A' for Active; 'I' for Inactive)
REMARK    1  A    between atoms: O_2  and  C_3
REMARK                            x       y       z     vdW  Elec       q    Type
REMARK                         _______ _______ _______ _____ _____    ______ ____
ROOT
ATOM      1  C   UNL     1      -9.419  17.237  -2.338  0.00  0.00    +0.000 A 
ATOM      2  C   UNL     1     -10.820  17.495  -2.809  0.00  0.00    +0.000 A 
ATOM      3  C   UNL     1     -11.216  17.144  -4.213  0.00  0.00    +0.000 A 
ATOM      4  C   UNL     1     -10.212  16.534  -5.145  0.00  0.00    +0.000 A 
ATOM      5  C   UNL     1      -8.812  16.276  -4.674  0.00  0.00    +0.000 A 
ATOM      6  C   UNL     1      -8.415  16.627  -3.271  0.00  0.00    +0.000 A 
ATOM      7  C   UNL     1      -7.808  15.666  -5.607  0.00  0.00    +0.000 C 
ATOM      8  C   UNL     1      -6.407  15.407  -5.136  0.00  0.00    +0.000 C 
ATOM      9  C   UNL     1      -5.403  14.797  -6.069  0.00  0.00    +0.000 C 
ATOM     10  C   UNL     1      -5.799  14.446  -7.472  0.00  0.00    +0.000 C 
ATOM     11  C   UNL     1      -7.200  14.705  -7.943  0.00  0.00    +0.000 C 
ATOM     12  C   UNL     1      -8.204  15.314  -7.010  0.00  0.00    +0.000 C 
ATOM     13  C   UNL     1      -9.604  15.573  -7.481  0.00  0.00    +0.000 C 
ATOM     14  C   UNL     1     -10.608  16.183  -6.549  0.00  0.00    +0.000 C 
ATOM     15  N   UNL     1      -9.520  15.818  -6.674  0.00  0.00    +0.000 NA
ATOM     16  C   UNL     1      -8.997  14.612  -9.817  0.00  0.00    +0.000 C 
ATOM     17  C   UNL     1      -8.606  15.559  -6.637  0.00  0.00    +0.000 C 
ATOM     18  C   UNL     1      -8.621  15.864  -5.737  0.00  0.00    +0.000 C 
ENDROOT
BRANCH   1  20
ATOM     19  C   UNL     1      -9.501  16.748   0.212  0.00  0.00    +0.000 C 
ATOM     20  O   UNL     1      -9.023  17.588  -0.935  0.00  0.00    +0.000 OA
ENDBRANCH   1  20
TORSDOF 1
ENDMDL
MODEL 8
REMARK VINA RESULT:      -5.6      2.445      4.200
REMARK  Name = 
REMARK  1 active torsions:
REMARK  status: ('A' for Active; 'I' for Inactive)
REMARK    1  A    between atoms: O_2  and  C_3
REMARK                            x       y       z     vdW  Elec       q    Type
REMARK                         _______ _______ _______ _____ _____    ______ ____
ROOT
ATOM      1  C   UNL     1     -19.131  16.053  -5.202  0.00  0.00    +0.000 A 
ATOM      2  C   UNL     1     -17.723  16.393  -4.814  0.00  0.00    +0.000 A 
ATOM      3  C   UNL     1     -16.572  15.709  -5.492  0.00  0.00    +0.000 A 
ATOM      4  C   UNL     1     -16.831  14.686  -6.558  0.00  0.00    +0.000 A 
ATOM      5  C   UNL     1     -18.239  14.346  -6.946  0.00  0.00    +0.000 A 
ATOM      6  C   UNL     1     -19.390  15.030  -6.268  0.00  0.00    +0.000 A 
ATOM      7  C   UNL     1     -18.498  13.322  -8.011  0.00  0.00    +0.000 C 
ATOM      8  C   UNL     1     -19.906  12.983  -8.399  0.00  0.00    +0.000 C 
ATOM      9  C   UNL     1     -20.164  11.959  -9.465  0.00  0.00    +0.000 C 
ATOM     10  C   UNL     1     -19.014  11.276 -10.143  0.00  0.00    +0.000 C 
ATOM     11  C   UNL     1     -17.606  11.615  -9.755  0.00  0.00    +0.000 C 
ATOM     12  C   UNL     1     -17.347  12.639  -8.689  0.00  0.00    +0.000 C 
ATOM     13  C   UNL     1     -15.939  12.978  -8.301  0.00  0.00    +0.000 C 
ATOM     14  C   UNL     1     -15.680  14.002  -7.235  0.00  0.00    +0.000 C 
ATOM     15  N   UNL     1     -16.485  13.436  -7.842  0.00  0.00    +0.000 NA
ATOM     16  C   UNL     1     -15.047  11.271 -10.045  0.00  0.00    +0.000 C 
ATOM     17  C   UNL     1     -17.244  13.048  -8.263  0.00  0.00    +0.000 C 
ATOM     18  C   UNL     1     -17.764  13.608  -7.697  0.00  0.00    +0.000 C 
ENDROOT
BRANCH   1  20
ATOM     19  C   UNL     1     -21.072  16.013  -3.475  0.00  0.00    +0.000 C 
ATOM     20  O   UNL     1     -20.281  16.737  -4.524  0.00  0.00    +0.000 OA
ENDBRANCH   1  20
TORSDOF 1
ENDMDL
MODEL 9
REMARK VINA RESULT:      -5.5      6.526     10.575
REMARK  Name = 
REMARK  1 active torsions:
REMARK  status: ('A' for Active; 'I' for Inactive)
REMARK    1  A    between atoms: O_2  and  C_3
REMARK                            x       y       z     vdW  Elec       q    Type
REMARK                         _______ _______ _______ _____ _____    ______ ____
ROOT
ATOM      1  C   UNL     1     -10.590  15.316  -8.482  0.00  0.00    +0.000 A 
ATOM      2  C   UNL     1      -9.716  14.730  -9.551  0.00  0.00    +0.000 A 
ATOM      3  C   UNL     1      -8.255  14.513  -9.290  0.00  0.00    +0.000 A 
ATOM      4  C   UNL     1      -7.668  14.881  -7.960  0.00  0.00    +0.000 A 
ATOM      5  C   UNL     1      -8.541  15.467  -6.891  0.00  0.00    +0.000 A 
ATOM      6  C   UNL     1     -10.002  15.685  -7.152  0.00  0.00    +0.000 A 
ATOM      7  C   UNL     1      -7.954  15.835  -5.561  0.00  0.00    +0.000 C 
ATOM      8  C   UNL     1      -8.827  16.421  -4.492  0.00  0.00    +0.000 C 
ATOM      9  C   UNL     1      -8.239  16.790  -3.162  0.00  0.00    +0.000 C 
ATOM     10  C   UNL     1      -6.778  16.572  -2.901  0.00  0.00    +0.000 C 
ATOM     11  C   UNL     1      -5.905  15.986  -3.970  0.00  0.00    +0.000 C 
ATOM     12  C   UNL     1      -6.493  15.618  -5.300  0.00  0.00    +0.000 C 
ATOM     13  C   UNL     1      -5.619  15.032  -6.370  0.00  0.00    +0.000 C 
ATOM     14  C   UNL     1      -6.207  14.663  -7.700  0.00  0.00    +0.000 C 
ATOM     15  N   UNL     1      -6.416  15.099  -6.650  0.00  0.00    +0.000 NA
ATOM     16  C   UNL     1      -3.570  15.182  -4.779  0.00  0.00    +0.000 C 
ATOM     17  C   UNL     1      -6.727  15.470  -5.833  0.00  0.00    +0.000 C 
ATOM     18  C   UNL     1      -7.584  15.501  -6.246  0.00  0.00    +0.000 C 
ENDROOT
BRANCH   1  20
ATOM     19  C   UNL     1     -13.054  14.518  -8.282  0.00  0.00    +0.000 C 
ATOM     20  O   UNL     1     -12.051  15.534  -8.742  0.00  0.00    +0.000 OA
ENDBRANCH   1  20
TORSDOF 1
ENDMDL
