MODEL 1
REMARK VINA RESULT:      -5.1      0.000      0.000
REMARK  Name = 
REMARK  14 active torsions:
REMARK  status: ('A' for Active; 'I' for Inactive)
REMARK    1  A    between atoms: C_2  and  N_3
REMARK    2  A    between atoms: N_3  and  C_4
REMARK    3  A    between atoms: N_3  and  C_21
REMARK    4  A    between atoms: C_4  and  C_5
REMARK    5  A    between atoms: C_5  and  C_6
REMARK    6  A    between atoms: C_6  and  C_7
REMARK    7  A    between atoms: C_7  and  O_8
REMARK    8  A    between atoms: O_8  and  C_9
REMARK    9  A    between atoms: C_9  and  C_11
REMARK   10  A    between atoms: C_14  and  O_15
REMARK   11  A    between atoms: C_17  and  O_18
REMARK   12  A    between atoms: C_21  and  C_23
REMARK   13  A    between atoms: C_23  and  C_24
REMARK   14  A    between atoms: C_27  and  O_28
REMARK                            x       y       z     vdW  Elec       q    Type
REMARK                         _______ _______ _______ _____ _____    ______ ____
ROOT
ATOM      1  C   UNL     1     -12.430  15.950  -7.438  0.00  0.00    +0.000 C 
ENDROOT
BRANCH   1   2
ATOM      2  C   UNL     1     -13.880  15.615  -7.620  0.00  0.00    +0.000 C 
BRANCH   2   3
ATOM      3  N   UNL     1     -14.320  14.803  -8.803  0.00  0.00    +0.000 NA
BRANCH   3   5
ATOM      4  C   UNL     1     -16.272  15.627 -10.306  0.00  0.00    +0.000 C 
ATOM      5  C   UNL     1     -14.801  15.490 -10.046  0.00  0.00    +0.000 C 
ENDBRANCH   3   5
BRANCH   3   6
ATOM      6  C   UNL     1     -14.278  13.305  -8.741  0.00  0.00    +0.000 C 
ATOM      7  C   UNL     1     -13.206  12.554  -9.474  0.00  0.00    +0.000 C 
BRANCH   6   8
ATOM      8  C   UNL     1     -15.308  12.558  -7.947  0.00  0.00    +0.000 C 
BRANCH   8   9
ATOM      9  C   UNL     1     -16.694  12.382  -8.494  0.00  0.00    +0.000 A 
ATOM     10  C   UNL     1     -17.830  13.182  -7.929  0.00  0.00    +0.000 A 
ATOM     11  C   UNL     1     -19.216  13.007  -8.476  0.00  0.00    +0.000 A 
ATOM     12  C   UNL     1     -19.465  12.031  -9.587  0.00  0.00    +0.000 A 
ATOM     13  C   UNL     1     -18.329  11.230 -10.152  0.00  0.00    +0.000 A 
ATOM     14  C   UNL     1     -16.944  11.406  -9.605  0.00  0.00    +0.000 A 
BRANCH  12  15
ATOM     15  O   UNL     1     -20.851  11.855 -10.133  0.00  0.00    +0.000 OA
ATOM     16  C   UNL     1     -21.361  12.781 -11.198  0.00  0.00    +0.000 C 
ENDBRANCH  12  15
ENDBRANCH   8   9
ENDBRANCH   6   8
ENDBRANCH   3   6
ENDBRANCH   2   3
ENDBRANCH   1   2
BRANCH   1  17
ATOM     17  C   UNL     1     -11.835  17.123  -8.160  0.00  0.00    +0.000 C 
BRANCH  17  18
ATOM     18  C   UNL     1     -11.160  16.925  -9.485  0.00  0.00    +0.000 C 
BRANCH  18  19
ATOM     19  O   UNL     1      -9.670  16.770  -9.552  0.00  0.00    +0.000 OA
BRANCH  19  20
ATOM     20  C   UNL     1      -9.037  15.454  -9.209  0.00  0.00    +0.000 C 
ATOM     21  O   UNL     1      -9.288  14.254 -10.073  0.00  0.00    +0.000 OA
BRANCH  20  22
ATOM     22  C   UNL     1      -8.152  15.339  -8.004  0.00  0.00    +0.000 A 
ATOM     23  C   UNL     1      -6.850  14.600  -8.097  0.00  0.00    +0.000 A 
ATOM     24  C   UNL     1      -5.966  14.484  -6.891  0.00  0.00    +0.000 A 
ATOM     25  C   UNL     1      -6.383  15.108  -5.592  0.00  0.00    +0.000 A 
ATOM     26  C   UNL     1      -7.685  15.847  -5.499  0.00  0.00    +0.000 A 
ATOM     27  C   UNL     1      -8.569  15.962  -6.705  0.00  0.00    +0.000 A 
BRANCH  25  28
ATOM     28  O   UNL     1      -5.498  14.992  -4.386  0.00  0.00    +0.000 OA
ATOM     29  C   UNL     1      -4.255  15.826  -4.285  0.00  0.00    +0.000 C 
ENDBRANCH  25  28
BRANCH  26  30
ATOM     30  O   UNL     1      -8.102  16.471  -4.200  0.00  0.00    +0.000 OA
ATOM     31  C   UNL     1      -9.542  16.818  -3.963  0.00  0.00    +0.000 C 
ENDBRANCH  26  30
ENDBRANCH  20  22
ENDBRANCH  19  20
ENDBRANCH  18  19
ENDBRANCH  17  18
ENDBRANCH   1  17
TORSDOF 14
ENDMDL
MODEL 2
REMARK VINA RESULT:      -5.0      2.582     11.316
REMARK  Name = 
REMARK  14 active torsions:
REMARK  status: ('A' for Active; 'I' for Inactive)
REMARK    1  A    between atoms: C_2  and  N_3
REMARK    2  A    between atoms: N_3  and  C_4
REMARK    3  A    between atoms: N_3  and  C_21
REMARK    4  A    between atoms: C_4  and  C_5
REMARK    5  A    between atoms: C_5  and  C_6
REMARK    6  A    between atoms: C_6  and  C_7
REMARK    7  A    between atoms: C_7  and  O_8
REMARK    8  A    between atoms: O_8  and  C_9
REMARK    9  A    between atoms: C_9  and  C_11
REMARK   10  A    between atoms: C_14  and  O_15
REMARK   11  A    between atoms: C_17  and  O_18
REMARK   12  A    between atoms: C_21  and  C_23
REMARK   13  A    between atoms: C_23  and  C_24
REMARK   14  A    between atoms: C_27  and  O_28
REMARK                            x       y       z     vdW  Elec       q    Type
REMARK                         _______ _______ _______ _____ _____    ______ ____
ROOT
ATOM      1  C   UNL     1     -11.782  14.802  -7.840  0.00  0.00    +0.000 C 
ENDROOT
BRANCH   1   2
ATOM      2  C   UNL     1     -11.027  15.667  -8.805  0.00  0.00    +0.000 C 
BRANCH   2   3
ATOM      3  N   UNL     1      -9.540  15.519  -8.940  0.00  0.00    +0.000 NA
BRANCH   3   5
ATOM      4  C   UNL     1      -7.891  15.636 -10.944  0.00  0.00    +0.000 C 
ATOM      5  C   UNL     1      -8.957  14.909 -10.180  0.00  0.00    +0.000 C 
ENDBRANCH   3   5
BRANCH   3   6
ATOM      6  C   UNL     1      -8.637  15.980  -7.835  0.00  0.00    +0.000 C 
ATOM      7  C   UNL     1      -8.219  17.419  -7.759  0.00  0.00    +0.000 C 
BRANCH   6   8
ATOM      8  C   UNL     1      -8.151  15.003  -6.806  0.00  0.00    +0.000 C 
BRANCH   8   9
ATOM      9  C   UNL     1      -6.717  15.028  -6.366  0.00  0.00    +0.000 A 
ATOM     10  C   UNL     1      -6.372  15.408  -4.957  0.00  0.00    +0.000 A 
ATOM     11  C   UNL     1      -4.938  15.433  -4.517  0.00  0.00    +0.000 A 
ATOM     12  C   UNL     1      -3.850  15.077  -5.487  0.00  0.00    +0.000 A 
ATOM     13  C   UNL     1      -4.195  14.698  -6.896  0.00  0.00    +0.000 A 
ATOM     14  C   UNL     1      -5.629  14.673  -7.336  0.00  0.00    +0.000 A 
BRANCH  12  15
ATOM     15  O   UNL     1      -2.416  15.102  -5.047  0.00  0.00    +0.000 OA
ATOM     16  C   UNL     1      -1.893  16.267  -4.260  0.00  0.00    +0.000 C 
ENDBRANCH  12  15
ENDBRANCH   8   9
ENDBRANCH   6   8
ENDBRANCH   3   6
ENDBRANCH   2   3
ENDBRANCH   1   2
BRANCH   1  17
ATOM     17  C   UNL     1     -13.253  15.013  -7.637  0.00  0.00    +0.000 C 
BRANCH  17  18
ATOM     18  C   UNL     1     -13.926  14.473  -6.410  0.00  0.00    +0.000 C 
BRANCH  18  19
ATOM     19  O   UNL     1     -14.462  13.072  -6.404  0.00  0.00    +0.000 OA
BRANCH  19  20
ATOM     20  C   UNL     1     -14.778  12.384  -7.699  0.00  0.00    +0.000 C 
ATOM     21  O   UNL     1     -13.689  11.694  -8.466  0.00  0.00    +0.000 OA
BRANCH  20  22
ATOM     22  C   UNL     1     -16.181  12.387  -8.227  0.00  0.00    +0.000 A 
ATOM     23  C   UNL     1     -16.545  11.518  -9.395  0.00  0.00    +0.000 A 
ATOM     24  C   UNL     1     -17.949  11.520  -9.923  0.00  0.00    +0.000 A 
ATOM     25  C   UNL     1     -18.989  12.392  -9.283  0.00  0.00    +0.000 A 
ATOM     26  C   UNL     1     -18.626  13.261  -8.116  0.00  0.00    +0.000 A 
ATOM     27  C   UNL     1     -17.222  13.258  -7.588  0.00  0.00    +0.000 A 
BRANCH  25  28
ATOM     28  O   UNL     1     -20.393  12.394  -9.812  0.00  0.00    +0.000 OA
ATOM     29  C   UNL     1     -21.058  11.101 -10.181  0.00  0.00    +0.000 C 
ENDBRANCH  25  28
BRANCH  26  30
ATOM     30  O   UNL     1     -19.666  14.132  -7.477  0.00  0.00    +0.000 OA
ATOM     31  C   UNL     1     -19.688  14.304  -5.987  0.00  0.00    +0.000 C 
ENDBRANCH  26  30
ENDBRANCH  20  22
ENDBRANCH  19  20
ENDBRANCH  18  19
ENDBRANCH  17  18
ENDBRANCH   1  17
TORSDOF 14
ENDMDL
MODEL 3
REMARK VINA RESULT:      -4.9      2.557     11.289
REMARK  Name = 
REMARK  14 active torsions:
REMARK  status: ('A' for Active; 'I' for Inactive)
REMARK    1  A    between atoms: C_2  and  N_3
REMARK    2  A    between atoms: N_3  and  C_4
REMARK    3  A    between atoms: N_3  and  C_21
REMARK    4  A    between atoms: C_4  and  C_5
REMARK    5  A    between atoms: C_5  and  C_6
REMARK    6  A    between atoms: C_6  and  C_7
REMARK    7  A    between atoms: C_7  and  O_8
REMARK    8  A    between atoms: O_8  and  C_9
REMARK    9  A    between atoms: C_9  and  C_11
REMARK   10  A    between atoms: C_14  and  O_15
REMARK   11  A    between atoms: C_17  and  O_18
REMARK   12  A    between atoms: C_21  and  C_23
REMARK   13  A    between atoms: C_23  and  C_24
REMARK   14  A    between atoms: C_27  and  O_28
REMARK                            x       y       z     vdW  Elec       q    Type
REMARK                         _______ _______ _______ _____ _____    ______ ____
ROOT
ATOM      1  C   UNL     1     -10.481  15.457  -7.812  0.00  0.00    +0.000 C 
ENDROOT
BRANCH   1   2
ATOM      2  C   UNL     1      -9.792  16.788  -7.879  0.00  0.00    +0.000 C 
BRANCH   2   3
ATOM      3  N   UNL     1      -8.333  16.860  -8.221  0.00  0.00    +0.000 NA
BRANCH   3   5
ATOM      4  C   UNL     1      -6.139  18.243  -8.370  0.00  0.00    +0.000 C 
ATOM      5  C   UNL     1      -7.535  18.075  -7.848  0.00  0.00    +0.000 C 
ENDBRANCH   3   5
BRANCH   3   6
ATOM      6  C   UNL     1      -7.673  15.719  -8.935  0.00  0.00    +0.000 C 
ATOM      7  C   UNL     1      -7.557  15.736 -10.430  0.00  0.00    +0.000 C 
BRANCH   6   8
ATOM      8  C   UNL     1      -7.127  14.560  -8.154  0.00  0.00    +0.000 C 
BRANCH   8   9
ATOM      9  C   UNL     1      -6.124  14.796  -7.064  0.00  0.00    +0.000 A 
ATOM     10  C   UNL     1      -4.662  14.869  -7.393  0.00  0.00    +0.000 A 
ATOM     11  C   UNL     1      -3.659  15.105  -6.304  0.00  0.00    +0.000 A 
ATOM     12  C   UNL     1      -4.117  15.268  -4.885  0.00  0.00    +0.000 A 
ATOM     13  C   UNL     1      -5.579  15.195  -4.555  0.00  0.00    +0.000 A 
ATOM     14  C   UNL     1      -6.582  14.959  -5.645  0.00  0.00    +0.000 A 
BRANCH  12  15
ATOM     15  O   UNL     1      -3.114  15.504  -3.795  0.00  0.00    +0.000 OA
ATOM     16  C   UNL     1      -1.653  15.291  -4.061  0.00  0.00    +0.000 C 
ENDBRANCH  12  15
ENDBRANCH   8   9
ENDBRANCH   6   8
ENDBRANCH   3   6
ENDBRANCH   2   3
ENDBRANCH   1   2
BRANCH   1  17
ATOM     17  C   UNL     1     -11.908  15.328  -8.258  0.00  0.00    +0.000 C 
BRANCH  17  18
ATOM     18  C   UNL     1     -12.414  14.017  -8.782  0.00  0.00    +0.000 C 
BRANCH  18  19
ATOM     19  O   UNL     1     -13.033  13.024  -7.845  0.00  0.00    +0.000 OA
BRANCH  19  20
ATOM     20  C   UNL     1     -14.367  13.311  -7.222  0.00  0.00    +0.000 C 
ATOM     21  O   UNL     1     -14.442  14.048  -5.918  0.00  0.00    +0.000 OA
BRANCH  20  22
ATOM     22  C   UNL     1     -15.625  12.860  -7.902  0.00  0.00    +0.000 A 
ATOM     23  C   UNL     1     -15.558  11.857  -9.015  0.00  0.00    +0.000 A 
ATOM     24  C   UNL     1     -16.816  11.406  -9.696  0.00  0.00    +0.000 A 
ATOM     25  C   UNL     1     -18.142  11.959  -9.264  0.00  0.00    +0.000 A 
ATOM     26  C   UNL     1     -18.209  12.963  -8.151  0.00  0.00    +0.000 A 
ATOM     27  C   UNL     1     -16.951  13.413  -7.470  0.00  0.00    +0.000 A 
BRANCH  25  28
ATOM     28  O   UNL     1     -19.401  11.509  -9.944  0.00  0.00    +0.000 OA
ATOM     29  C   UNL     1     -19.442  11.385 -11.439  0.00  0.00    +0.000 C 
ENDBRANCH  25  28
BRANCH  26  30
ATOM     30  O   UNL     1     -19.535  13.516  -7.719  0.00  0.00    +0.000 OA
ATOM     31  C   UNL     1     -19.607  14.487  -6.578  0.00  0.00    +0.000 C 
ENDBRANCH  26  30
ENDBRANCH  20  22
ENDBRANCH  19  20
ENDBRANCH  18  19
ENDBRANCH  17  18
ENDBRANCH   1  17
TORSDOF 14
ENDMDL
MODEL 4
REMARK VINA RESULT:      -4.9      2.775      9.058
REMARK  Name = 
REMARK  14 active torsions:
REMARK  status: ('A' for Active; 'I' for Inactive)
REMARK    1  A    between atoms: C_2  and  N_3
REMARK    2  A    between atoms: N_3  and  C_4
REMARK    3  A    between atoms: N_3  and  C_21
REMARK    4  A    between atoms: C_4  and  C_5
REMARK    5  A    between atoms: C_5  and  C_6
REMARK    6  A    between atoms: C_6  and  C_7
REMARK    7  A    between atoms: C_7  and  O_8
REMARK    8  A    between atoms: O_8  and  C_9
REMARK    9  A    between atoms: C_9  and  C_11
REMARK   10  A    between atoms: C_14  and  O_15
REMARK   11  A    between atoms: C_17  and  O_18
REMARK   12  A    between atoms: C_21  and  C_23
REMARK   13  A    between atoms: C_23  and  C_24
REMARK   14  A    between atoms: C_27  and  O_28
REMARK                            x       y       z     vdW  Elec       q    Type
REMARK                         _______ _______ _______ _____ _____    ______ ____
ROOT
ATOM      1  C   UNL     1     -11.806  17.850  -8.312  0.00  0.00    +0.000 C 
ENDROOT
BRANCH   1   2
ATOM      2  C   UNL     1     -11.338  16.936  -9.405  0.00  0.00    +0.000 C 
BRANCH   2   3
ATOM      3  N   UNL     1      -9.994  17.148 -10.035  0.00  0.00    +0.000 NA
BRANCH   3   5
ATOM      4  C   UNL     1      -8.415  19.190  -9.736  0.00  0.00    +0.000 C 
ATOM      5  C   UNL     1      -9.563  18.528 -10.438  0.00  0.00    +0.000 C 
ENDBRANCH   3   5
BRANCH   3   6
ATOM      6  C   UNL     1      -9.079  15.981 -10.263  0.00  0.00    +0.000 C 
ATOM      7  C   UNL     1      -8.181  15.956 -11.464  0.00  0.00    +0.000 C 
BRANCH   6   8
ATOM      8  C   UNL     1      -9.064  14.840  -9.290  0.00  0.00    +0.000 C 
BRANCH   8   9
ATOM      9  C   UNL     1      -8.250  14.936  -8.034  0.00  0.00    +0.000 A 
ATOM     10  C   UNL     1      -8.904  15.341  -6.746  0.00  0.00    +0.000 A 
ATOM     11  C   UNL     1      -8.090  15.438  -5.490  0.00  0.00    +0.000 A 
ATOM     12  C   UNL     1      -6.623  15.128  -5.521  0.00  0.00    +0.000 A 
ATOM     13  C   UNL     1      -5.969  14.723  -6.809  0.00  0.00    +0.000 A 
ATOM     14  C   UNL     1      -6.783  14.627  -8.065  0.00  0.00    +0.000 A 
BRANCH  12  15
ATOM     15  O   UNL     1      -5.809  15.225  -4.264  0.00  0.00    +0.000 OA
ATOM     16  C   UNL     1      -5.837  16.482  -3.448  0.00  0.00    +0.000 C 
ENDBRANCH  12  15
ENDBRANCH   8   9
ENDBRANCH   6   8
ENDBRANCH   3   6
ENDBRANCH   2   3
ENDBRANCH   1   2
BRANCH   1  17
ATOM     17  C   UNL     1     -10.922  18.121  -7.131  0.00  0.00    +0.000 C 
BRANCH  17  18
ATOM     18  C   UNL     1     -11.525  18.305  -5.769  0.00  0.00    +0.000 C 
BRANCH  18  19
ATOM     19  O   UNL     1     -12.967  17.967  -5.536  0.00  0.00    +0.000 OA
BRANCH  19  20
ATOM     20  C   UNL     1     -13.335  16.692  -4.836  0.00  0.00    +0.000 C 
ATOM     21  O   UNL     1     -13.384  16.647  -3.337  0.00  0.00    +0.000 OA
BRANCH  20  22
ATOM     22  C   UNL     1     -13.652  15.463  -5.634  0.00  0.00    +0.000 A 
ATOM     23  C   UNL     1     -12.543  14.659  -6.246  0.00  0.00    +0.000 A 
ATOM     24  C   UNL     1     -12.861  13.430  -7.045  0.00  0.00    +0.000 A 
ATOM     25  C   UNL     1     -14.287  13.004  -7.231  0.00  0.00    +0.000 A 
ATOM     26  C   UNL     1     -15.396  13.807  -6.619  0.00  0.00    +0.000 A 
ATOM     27  C   UNL     1     -15.078  15.037  -5.820  0.00  0.00    +0.000 A 
BRANCH  25  28
ATOM     28  O   UNL     1     -14.605  11.774  -8.030  0.00  0.00    +0.000 OA
ATOM     29  C   UNL     1     -14.714  11.858  -9.523  0.00  0.00    +0.000 C 
ENDBRANCH  25  28
BRANCH  26  30
ATOM     30  O   UNL     1     -16.822  13.382  -6.805  0.00  0.00    +0.000 OA
ATOM     31  C   UNL     1     -17.597  13.857  -7.999  0.00  0.00    +0.000 C 
ENDBRANCH  26  30
ENDBRANCH  20  22
ENDBRANCH  19  20
ENDBRANCH  18  19
ENDBRANCH  17  18
ENDBRANCH   1  17
TORSDOF 14
ENDMDL
MODEL 5
REMARK VINA RESULT:      -4.9      2.055      3.550
REMARK  Name = 
REMARK  14 active torsions:
REMARK  status: ('A' for Active; 'I' for Inactive)
REMARK    1  A    between atoms: C_2  and  N_3
REMARK    2  A    between atoms: N_3  and  C_4
REMARK    3  A    between atoms: N_3  and  C_21
REMARK    4  A    between atoms: C_4  and  C_5
REMARK    5  A    between atoms: C_5  and  C_6
REMARK    6  A    between atoms: C_6  and  C_7
REMARK    7  A    between atoms: C_7  and  O_8
REMARK    8  A    between atoms: O_8  and  C_9
REMARK    9  A    between atoms: C_9  and  C_11
REMARK   10  A    between atoms: C_14  and  O_15
REMARK   11  A    between atoms: C_17  and  O_18
REMARK   12  A    between atoms: C_21  and  C_23
REMARK   13  A    between atoms: C_23  and  C_24
REMARK   14  A    between atoms: C_27  and  O_28
REMARK                            x       y       z     vdW  Elec       q    Type
REMARK                         _______ _______ _______ _____ _____    ______ ____
ROOT
ATOM      1  C   UNL     1     -12.282  18.303  -9.114  0.00  0.00    +0.000 C 
ENDROOT
BRANCH   1   2
ATOM      2  C   UNL     1     -12.860  16.975  -8.724  0.00  0.00    +0.000 C 
BRANCH   2   3
ATOM      3  N   UNL     1     -13.373  16.760  -7.331  0.00  0.00    +0.000 NA
BRANCH   3   5
ATOM      4  C   UNL     1     -15.920  16.351  -7.023  0.00  0.00    +0.000 C 
ATOM      5  C   UNL     1     -14.732  17.264  -6.946  0.00  0.00    +0.000 C 
ENDBRANCH   3   5
BRANCH   3   6
ATOM      6  C   UNL     1     -12.526  16.041  -6.322  0.00  0.00    +0.000 C 
ATOM      7  C   UNL     1     -12.076  16.750  -5.079  0.00  0.00    +0.000 C 
BRANCH   6   8
ATOM      8  C   UNL     1     -12.130  14.614  -6.557  0.00  0.00    +0.000 C 
BRANCH   8   9
ATOM      9  C   UNL     1     -13.036  13.701  -7.328  0.00  0.00    +0.000 A 
ATOM     10  C   UNL     1     -14.279  13.159  -6.687  0.00  0.00    +0.000 A 
ATOM     11  C   UNL     1     -15.185  12.247  -7.459  0.00  0.00    +0.000 A 
ATOM     12  C   UNL     1     -14.849  11.876  -8.872  0.00  0.00    +0.000 A 
ATOM     13  C   UNL     1     -13.606  12.417  -9.514  0.00  0.00    +0.000 A 
ATOM     14  C   UNL     1     -12.700  13.330  -8.742  0.00  0.00    +0.000 A 
BRANCH  12  15
ATOM     15  O   UNL     1     -15.755  10.963  -9.644  0.00  0.00    +0.000 OA
ATOM     16  C   UNL     1     -17.198  11.324  -9.835  0.00  0.00    +0.000 C 
ENDBRANCH  12  15
ENDBRANCH   8   9
ENDBRANCH   6   8
ENDBRANCH   3   6
ENDBRANCH   2   3
ENDBRANCH   1   2
BRANCH   1  17
ATOM     17  C   UNL     1     -10.930  18.711  -8.607  0.00  0.00    +0.000 C 
BRANCH  17  18
ATOM     18  C   UNL     1      -9.793  17.733  -8.634  0.00  0.00    +0.000 C 
BRANCH  18  19
ATOM     19  O   UNL     1      -9.810  16.589  -9.604  0.00  0.00    +0.000 OA
BRANCH  19  20
ATOM     20  C   UNL     1      -9.145  15.293  -9.248  0.00  0.00    +0.000 C 
ATOM     21  O   UNL     1      -9.375  14.075 -10.092  0.00  0.00    +0.000 OA
BRANCH  20  22
ATOM     22  C   UNL     1      -8.251  15.214  -8.046  0.00  0.00    +0.000 A 
ATOM     23  C   UNL     1      -8.821  15.415  -6.673  0.00  0.00    +0.000 A 
ATOM     24  C   UNL     1      -7.926  15.337  -5.471  0.00  0.00    +0.000 A 
ATOM     25  C   UNL     1      -6.463  15.057  -5.643  0.00  0.00    +0.000 A 
ATOM     26  C   UNL     1      -5.893  14.856  -7.016  0.00  0.00    +0.000 A 
ATOM     27  C   UNL     1      -6.787  14.934  -8.217  0.00  0.00    +0.000 A 
BRANCH  25  28
ATOM     28  O   UNL     1      -5.568  14.979  -4.441  0.00  0.00    +0.000 OA
ATOM     29  C   UNL     1      -5.045  16.236  -3.812  0.00  0.00    +0.000 C 
ENDBRANCH  25  28
BRANCH  26  30
ATOM     30  O   UNL     1      -4.429  14.576  -7.187  0.00  0.00    +0.000 OA
ATOM     31  C   UNL     1      -3.496  15.681  -7.584  0.00  0.00    +0.000 C 
ENDBRANCH  26  30
ENDBRANCH  20  22
ENDBRANCH  19  20
ENDBRANCH  18  19
ENDBRANCH  17  18
ENDBRANCH   1  17
TORSDOF 14
ENDMDL
MODEL 6
REMARK VINA RESULT:      -4.8      2.204     10.543
REMARK  Name = 
REMARK  14 active torsions:
REMARK  status: ('A' for Active; 'I' for Inactive)
REMARK    1  A    between atoms: C_2  and  N_3
REMARK    2  A    between atoms: N_3  and  C_4
REMARK    3  A    between atoms: N_3  and  C_21
REMARK    4  A    between atoms: C_4  and  C_5
REMARK    5  A    between atoms: C_5  and  C_6
REMARK    6  A    between atoms: C_6  and  C_7
REMARK    7  A    between atoms: C_7  and  O_8
REMARK    8  A    between atoms: O_8  and  C_9
REMARK    9  A    between atoms: C_9  and  C_11
REMARK   10  A    between atoms: C_14  and  O_15
REMARK   11  A    between atoms: C_17  and  O_18
REMARK   12  A    between atoms: C_21  and  C_23
REMARK   13  A    between atoms: C_23  and  C_24
REMARK   14  A    between atoms: C_27  and  O_28
REMARK                            x       y       z     vdW  Elec       q    Type
REMARK                         _______ _______ _______ _____ _____    ______ ____
ROOT
ATOM      1  C   UNL     1     -12.029  16.556  -8.564  0.00  0.00    +0.000 C 
ENDROOT
BRANCH   1   2
ATOM      2  C   UNL     1     -11.339  17.154  -9.754  0.00  0.00    +0.000 C 
BRANCH   2   3
ATOM      3  N   UNL     1      -9.841  17.228  -9.794  0.00  0.00    +0.000 NA
BRANCH   3   5
ATOM      4  C   UNL     1      -8.795  18.605  -7.856  0.00  0.00    +0.000 C 
ATOM      5  C   UNL     1      -9.138  18.460  -9.309  0.00  0.00    +0.000 C 
ENDBRANCH   3   5
BRANCH   3   6
ATOM      6  C   UNL     1      -9.047  16.069 -10.320  0.00  0.00    +0.000 C 
ATOM      7  C   UNL     1      -8.432  16.139 -11.686  0.00  0.00    +0.000 C 
BRANCH   6   8
ATOM      8  C   UNL     1      -8.869  14.839  -9.479  0.00  0.00    +0.000 C 
BRANCH   8   9
ATOM      9  C   UNL     1      -8.153  14.927  -8.164  0.00  0.00    +0.000 A 
ATOM     10  C   UNL     1      -6.665  14.743  -8.108  0.00  0.00    +0.000 A 
ATOM     11  C   UNL     1      -5.948  14.831  -6.793  0.00  0.00    +0.000 A 
ATOM     12  C   UNL     1      -6.719  15.102  -5.535  0.00  0.00    +0.000 A 
ATOM     13  C   UNL     1      -8.207  15.285  -5.592  0.00  0.00    +0.000 A 
ATOM     14  C   UNL     1      -8.923  15.198  -6.907  0.00  0.00    +0.000 A 
BRANCH  12  15
ATOM     15  O   UNL     1      -6.002  15.189  -4.220  0.00  0.00    +0.000 OA
ATOM     16  C   UNL     1      -4.956  16.243  -4.005  0.00  0.00    +0.000 C 
ENDBRANCH  12  15
ENDBRANCH   8   9
ENDBRANCH   6   8
ENDBRANCH   3   6
ENDBRANCH   2   3
ENDBRANCH   1   2
BRANCH   1  17
ATOM     17  C   UNL     1     -12.369  15.095  -8.551  0.00  0.00    +0.000 C 
BRANCH  17  18
ATOM     18  C   UNL     1     -13.796  14.656  -8.690  0.00  0.00    +0.000 C 
BRANCH  18  19
ATOM     19  O   UNL     1     -14.124  13.395  -9.433  0.00  0.00    +0.000 OA
BRANCH  19  20
ATOM     20  C   UNL     1     -14.935  12.322  -8.768  0.00  0.00    +0.000 C 
ATOM     21  O   UNL     1     -14.248  11.214  -8.026  0.00  0.00    +0.000 OA
BRANCH  20  22
ATOM     22  C   UNL     1     -16.433  12.357  -8.846  0.00  0.00    +0.000 A 
ATOM     23  C   UNL     1     -17.150  11.530  -9.872  0.00  0.00    +0.000 A 
ATOM     24  C   UNL     1     -18.648  11.565  -9.949  0.00  0.00    +0.000 A 
ATOM     25  C   UNL     1     -19.428  12.427  -9.001  0.00  0.00    +0.000 A 
ATOM     26  C   UNL     1     -18.710  13.254  -7.976  0.00  0.00    +0.000 A 
ATOM     27  C   UNL     1     -17.213  13.219  -7.898  0.00  0.00    +0.000 A 
BRANCH  25  28
ATOM     28  O   UNL     1     -20.925  12.462  -9.079  0.00  0.00    +0.000 OA
ATOM     29  C   UNL     1     -21.600  13.003 -10.305  0.00  0.00    +0.000 C 
ENDBRANCH  25  28
BRANCH  26  30
ATOM     30  O   UNL     1     -19.491  14.116  -7.028  0.00  0.00    +0.000 OA
ATOM     31  C   UNL     1     -18.812  14.728  -5.839  0.00  0.00    +0.000 C 
ENDBRANCH  26  30
ENDBRANCH  20  22
ENDBRANCH  19  20
ENDBRANCH  18  19
ENDBRANCH  17  18
ENDBRANCH   1  17
TORSDOF 14
ENDMDL
MODEL 7
REMARK VINA RESULT:      -4.8      2.185     10.453
REMARK  Name = 
REMARK  14 active torsions:
REMARK  status: ('A' for Active; 'I' for Inactive)
REMARK    1  A    between atoms: C_2  and  N_3
REMARK    2  A    between atoms: N_3  and  C_4
REMARK    3  A    between atoms: N_3  and  C_21
REMARK    4  A    between atoms: C_4  and  C_5
REMARK    5  A    between atoms: C_5  and  C_6
REMARK    6  A    between atoms: C_6  and  C_7
REMARK    7  A    between atoms: C_7  and  O_8
REMARK    8  A    between atoms: O_8  and  C_9
REMARK    9  A    between atoms: C_9  and  C_11
REMARK   10  A    between atoms: C_14  and  O_15
REMARK   11  A    between atoms: C_17  and  O_18
REMARK   12  A    between atoms: C_21  and  C_23
REMARK   13  A    between atoms: C_23  and  C_24
REMARK   14  A    between atoms: C_27  and  O_28
REMARK                            x       y       z     vdW  Elec       q    Type
REMARK                         _______ _______ _______ _____ _____    ______ ____
ROOT
ATOM      1  C   UNL     1     -11.815  17.042  -8.011  0.00  0.00    +0.000 C 
ENDROOT
BRANCH   1   2
ATOM      2  C   UNL     1     -11.143  17.000  -9.352  0.00  0.00    +0.000 C 
BRANCH   2   3
ATOM      3  N   UNL     1      -9.646  16.986  -9.440  0.00  0.00    +0.000 NA
BRANCH   3   5
ATOM      4  C   UNL     1      -7.377  18.223  -9.175  0.00  0.00    +0.000 C 
ATOM      5  C   UNL     1      -8.853  18.147  -8.918  0.00  0.00    +0.000 C 
ENDBRANCH   3   5
BRANCH   3   6
ATOM      6  C   UNL     1      -8.942  15.811 -10.051  0.00  0.00    +0.000 C 
ATOM      7  C   UNL     1      -8.575  15.829 -11.505  0.00  0.00    +0.000 C 
BRANCH   6   8
ATOM      8  C   UNL     1      -8.604  14.617  -9.208  0.00  0.00    +0.000 C 
BRANCH   8   9
ATOM      9  C   UNL     1      -7.855  14.796  -7.921  0.00  0.00    +0.000 A 
ATOM     10  C   UNL     1      -6.376  14.551  -7.874  0.00  0.00    +0.000 A 
ATOM     11  C   UNL     1      -5.626  14.730  -6.587  0.00  0.00    +0.000 A 
ATOM     12  C   UNL     1      -6.356  15.154  -5.347  0.00  0.00    +0.000 A 
ATOM     13  C   UNL     1      -7.835  15.399  -5.394  0.00  0.00    +0.000 A 
ATOM     14  C   UNL     1      -8.585  15.220  -6.681  0.00  0.00    +0.000 A 
BRANCH  12  15
ATOM     15  O   UNL     1      -5.607  15.333  -4.060  0.00  0.00    +0.000 OA
ATOM     16  C   UNL     1      -4.630  16.462  -3.911  0.00  0.00    +0.000 C 
ENDBRANCH  12  15
ENDBRANCH   8   9
ENDBRANCH   6   8
ENDBRANCH   3   6
ENDBRANCH   2   3
ENDBRANCH   1   2
BRANCH   1  17
ATOM     17  C   UNL     1     -12.123  15.766  -7.286  0.00  0.00    +0.000 C 
BRANCH  17  18
ATOM     18  C   UNL     1     -12.548  14.550  -8.056  0.00  0.00    +0.000 C 
BRANCH  18  19
ATOM     19  O   UNL     1     -13.303  13.452  -7.366  0.00  0.00    +0.000 OA
BRANCH  19  20
ATOM     20  C   UNL     1     -14.335  12.665  -8.117  0.00  0.00    +0.000 C 
ATOM     21  O   UNL     1     -13.910  11.593  -9.076  0.00  0.00    +0.000 OA
BRANCH  20  22
ATOM     22  C   UNL     1     -15.793  12.950  -7.909  0.00  0.00    +0.000 A 
ATOM     23  C   UNL     1     -16.233  13.809  -6.761  0.00  0.00    +0.000 A 
ATOM     24  C   UNL     1     -17.691  14.094  -6.552  0.00  0.00    +0.000 A 
ATOM     25  C   UNL     1     -18.709  13.520  -7.493  0.00  0.00    +0.000 A 
ATOM     26  C   UNL     1     -18.269  12.662  -8.641  0.00  0.00    +0.000 A 
ATOM     27  C   UNL     1     -16.811  12.377  -8.850  0.00  0.00    +0.000 A 
BRANCH  25  28
ATOM     28  O   UNL     1     -20.167  13.805  -7.285  0.00  0.00    +0.000 OA
ATOM     29  C   UNL     1     -20.643  14.361  -5.975  0.00  0.00    +0.000 C 
ENDBRANCH  25  28
BRANCH  26  30
ATOM     30  O   UNL     1     -19.287  12.088  -9.582  0.00  0.00    +0.000 OA
ATOM     31  C   UNL     1     -18.947  10.888 -10.414  0.00  0.00    +0.000 C 
ENDBRANCH  26  30
ENDBRANCH  20  22
ENDBRANCH  19  20
ENDBRANCH  18  19
ENDBRANCH  17  18
ENDBRANCH   1  17
TORSDOF 14
ENDMDL
MODEL 8
REMARK VINA RESULT:      -4.8      2.244     10.697
REMARK  Name = 
REMARK  14 active torsions:
REMARK  status: ('A' for Active; 'I' for Inactive)
REMARK    1  A    between atoms: C_2  and  N_3
REMARK    2  A    between atoms: N_3  and  C_4
REMARK    3  A    between atoms: N_3  and  C_21
REMARK    4  A    between atoms: C_4  and  C_5
REMARK    5  A    between atoms: C_5  and  C_6
REMARK    6  A    between atoms: C_6  and  C_7
REMARK    7  A    between atoms: C_7  and  O_8
REMARK    8  A    between atoms: O_8  and  C_9
REMARK    9  A    between atoms: C_9  and  C_11
REMARK   10  A    between atoms: C_14  and  O_15
REMARK   11  A    between atoms: C_17  and  O_18
REMARK   12  A    between atoms: C_21  and  C_23
REMARK   13  A    between atoms: C_23  and  C_24
REMARK   14  A    between atoms: C_27  and  O_28
REMARK                            x       y       z     vdW  Elec       q    Type
REMARK                         _______ _______ _______ _____ _____    ______ ____
ROOT
ATOM      1  C   UNL     1     -14.174  14.806  -9.156  0.00  0.00    +0.000 C 
ENDROOT
BRANCH   1   2
ATOM      2  C   UNL     1     -13.697  16.015  -8.407  0.00  0.00    +0.000 C 
BRANCH   2   3
ATOM      3  N   UNL     1     -12.354  16.002  -7.740  0.00  0.00    +0.000 NA
BRANCH   3   5
ATOM      4  C   UNL     1     -13.479  15.367  -5.486  0.00  0.00    +0.000 C 
ATOM      5  C   UNL     1     -12.246  15.696  -6.275  0.00  0.00    +0.000 C 
ENDBRANCH   3   5
BRANCH   3   6
ATOM      6  C   UNL     1     -11.117  16.295  -8.537  0.00  0.00    +0.000 C 
ATOM      7  C   UNL     1     -10.894  17.668  -9.097  0.00  0.00    +0.000 C 
BRANCH   6   8
ATOM      8  C   UNL     1     -10.104  15.214  -8.775  0.00  0.00    +0.000 C 
BRANCH   8   9
ATOM      9  C   UNL     1      -8.734  15.325  -8.174  0.00  0.00    +0.000 A 
ATOM     10  C   UNL     1      -7.526  15.348  -9.063  0.00  0.00    +0.000 A 
ATOM     11  C   UNL     1      -6.156  15.459  -8.462  0.00  0.00    +0.000 A 
ATOM     12  C   UNL     1      -5.994  15.548  -6.974  0.00  0.00    +0.000 A 
ATOM     13  C   UNL     1      -7.203  15.526  -6.085  0.00  0.00    +0.000 A 
ATOM     14  C   UNL     1      -8.573  15.415  -6.686  0.00  0.00    +0.000 A 
BRANCH  12  15
ATOM     15  O   UNL     1      -4.624  15.660  -6.373  0.00  0.00    +0.000 OA
ATOM     16  C   UNL     1      -4.363  15.126  -4.996  0.00  0.00    +0.000 C 
ENDBRANCH  12  15
ENDBRANCH   8   9
ENDBRANCH   6   8
ENDBRANCH   3   6
ENDBRANCH   2   3
ENDBRANCH   1   2
BRANCH   1  17
ATOM     17  C   UNL     1     -13.364  13.544  -9.137  0.00  0.00    +0.000 C 
BRANCH  17  18
ATOM     18  C   UNL     1     -13.545  12.553  -8.026  0.00  0.00    +0.000 C 
BRANCH  18  19
ATOM     19  O   UNL     1     -14.883  11.911  -7.805  0.00  0.00    +0.000 OA
BRANCH  19  20
ATOM     20  C   UNL     1     -15.793  11.652  -8.969  0.00  0.00    +0.000 C 
ATOM     21  O   UNL     1     -15.270  10.951 -10.188  0.00  0.00    +0.000 OA
BRANCH  20  22
ATOM     22  C   UNL     1     -17.225  12.094  -8.914  0.00  0.00    +0.000 A 
ATOM     23  C   UNL     1     -18.238  11.468  -9.826  0.00  0.00    +0.000 A 
ATOM     24  C   UNL     1     -19.670  11.909  -9.772  0.00  0.00    +0.000 A 
ATOM     25  C   UNL     1     -20.090  12.977  -8.804  0.00  0.00    +0.000 A 
ATOM     26  C   UNL     1     -19.077  13.602  -7.892  0.00  0.00    +0.000 A 
ATOM     27  C   UNL     1     -17.645  13.161  -7.947  0.00  0.00    +0.000 A 
BRANCH  25  28
ATOM     28  O   UNL     1     -21.523  13.418  -8.750  0.00  0.00    +0.000 OA
ATOM     29  C   UNL     1     -22.452  12.824  -7.733  0.00  0.00    +0.000 C 
ENDBRANCH  25  28
BRANCH  26  30
ATOM     30  O   UNL     1     -19.497  14.669  -6.925  0.00  0.00    +0.000 OA
ATOM     31  C   UNL     1     -19.482  14.393  -5.451  0.00  0.00    +0.000 C 
ENDBRANCH  26  30
ENDBRANCH  20  22
ENDBRANCH  19  20
ENDBRANCH  18  19
ENDBRANCH  17  18
ENDBRANCH   1  17
TORSDOF 14
ENDMDL
MODEL 9
REMARK VINA RESULT:      -4.7      2.419      4.833
REMARK  Name = 
REMARK  14 active torsions:
REMARK  status: ('A' for Active; 'I' for Inactive)
REMARK    1  A    between atoms: C_2  and  N_3
REMARK    2  A    between atoms: N_3  and  C_4
REMARK    3  A    between atoms: N_3  and  C_21
REMARK    4  A    between atoms: C_4  and  C_5
REMARK    5  A    between atoms: C_5  and  C_6
REMARK    6  A    between atoms: C_6  and  C_7
REMARK    7  A    between atoms: C_7  and  O_8
REMARK    8  A    between atoms: O_8  and  C_9
REMARK    9  A    between atoms: C_9  and  C_11
REMARK   10  A    between atoms: C_14  and  O_15
REMARK   11  A    between atoms: C_17  and  O_18
REMARK   12  A    between atoms: C_21  and  C_23
REMARK   13  A    between atoms: C_23  and  C_24
REMARK   14  A    between atoms: C_27  and  O_28
REMARK                            x       y       z     vdW  Elec       q    Type
REMARK                         _______ _______ _______ _____ _____    ______ ____
ROOT
ATOM      1  C   UNL     1     -14.710  15.553 -10.085  0.00  0.00    +0.000 C 
ENDROOT
BRANCH   1   2
ATOM      2  C   UNL     1     -16.064  14.988  -9.771  0.00  0.00    +0.000 C 
BRANCH   2   3
ATOM      3  N   UNL     1     -16.192  13.576  -9.283  0.00  0.00    +0.000 NA
BRANCH   3   5
ATOM      4  C   UNL     1     -15.619  11.103  -9.840  0.00  0.00    +0.000 C 
ATOM      5  C   UNL     1     -15.200  12.538  -9.718  0.00  0.00    +0.000 C 
ENDBRANCH   3   5
BRANCH   3   6
ATOM      6  C   UNL     1     -17.313  13.200  -8.359  0.00  0.00    +0.000 C 
ATOM      7  C   UNL     1     -18.545  12.542  -8.904  0.00  0.00    +0.000 C 
BRANCH   6   8
ATOM      8  C   UNL     1     -17.201  13.483  -6.890  0.00  0.00    +0.000 C 
BRANCH   8   9
ATOM      9  C   UNL     1     -15.981  14.169  -6.349  0.00  0.00    +0.000 A 
ATOM     10  C   UNL     1     -14.709  13.398  -6.159  0.00  0.00    +0.000 A 
ATOM     11  C   UNL     1     -13.490  14.085  -5.619  0.00  0.00    +0.000 A 
ATOM     12  C   UNL     1     -13.543  15.542  -5.268  0.00  0.00    +0.000 A 
ATOM     13  C   UNL     1     -14.815  16.313  -5.458  0.00  0.00    +0.000 A 
ATOM     14  C   UNL     1     -16.035  15.627  -5.998  0.00  0.00    +0.000 A 
BRANCH  12  15
ATOM     15  O   UNL     1     -12.324  16.229  -4.727  0.00  0.00    +0.000 OA
ATOM     16  C   UNL     1     -12.468  17.327  -3.716  0.00  0.00    +0.000 C 
ENDBRANCH  12  15
ENDBRANCH   8   9
ENDBRANCH   6   8
ENDBRANCH   3   6
ENDBRANCH   2   3
ENDBRANCH   1   2
BRANCH   1  17
ATOM     17  C   UNL     1     -13.699  15.730  -8.991  0.00  0.00    +0.000 C 
BRANCH  17  18
ATOM     18  C   UNL     1     -12.412  14.960  -9.027  0.00  0.00    +0.000 C 
BRANCH  18  19
ATOM     19  O   UNL     1     -11.374  15.185  -7.968  0.00  0.00    +0.000 OA
BRANCH  19  20
ATOM     20  C   UNL     1      -9.977  15.567  -8.357  0.00  0.00    +0.000 C 
ATOM     21  O   UNL     1      -9.695  16.073  -9.740  0.00  0.00    +0.000 OA
BRANCH  20  22
ATOM     22  C   UNL     1      -8.861  15.443  -7.362  0.00  0.00    +0.000 A 
ATOM     23  C   UNL     1      -9.093  15.807  -5.925  0.00  0.00    +0.000 A 
ATOM     24  C   UNL     1      -7.978  15.684  -4.930  0.00  0.00    +0.000 A 
ATOM     25  C   UNL     1      -6.630  15.196  -5.372  0.00  0.00    +0.000 A 
ATOM     26  C   UNL     1      -6.397  14.832  -6.808  0.00  0.00    +0.000 A 
ATOM     27  C   UNL     1      -7.513  14.955  -7.803  0.00  0.00    +0.000 A 
BRANCH  25  28
ATOM     28  O   UNL     1      -5.514  15.072  -4.377  0.00  0.00    +0.000 OA
ATOM     29  C   UNL     1      -4.502  16.171  -4.245  0.00  0.00    +0.000 C 
ENDBRANCH  25  28
BRANCH  26  30
ATOM     30  O   UNL     1      -5.049  14.344  -7.250  0.00  0.00    +0.000 OA
ATOM     31  C   UNL     1      -4.062  15.304  -7.845  0.00  0.00    +0.000 C 
ENDBRANCH  26  30
ENDBRANCH  20  22
ENDBRANCH  19  20
ENDBRANCH  18  19
ENDBRANCH  17  18
ENDBRANCH   1  17
TORSDOF 14
ENDMDL
