MODEL 1
REMARK VINA RESULT:      -5.2      0.000      0.000
REMARK  Name = 
REMARK  7 active torsions:
REMARK  status: ('A' for Active; 'I' for Inactive)
REMARK    1  A    between atoms: C_7  and  C_8
REMARK    2  A    between atoms: C_8  and  C_9
REMARK    3  A    between atoms: C_8  and  C_18
REMARK    4  A    between atoms: C_9  and  C_10
REMARK    5  A    between atoms: C_10  and  N_11
REMARK    6  A    between atoms: N_11  and  C_12
REMARK    7  A    between atoms: N_11  and  C_15
REMARK                            x       y       z     vdW  Elec       q    Type
REMARK                         _______ _______ _______ _____ _____    ______ ____
ROOT
ATOM      1  C   UNL     1      -2.721   8.982   3.177  0.00  0.00    +0.000 C 
ENDROOT
BRANCH   1   8
ATOM      2  C   UNL     1       0.372   6.969  -0.481  0.00  0.00    +0.000 C 
ATOM      3  C   UNL     1      -0.344   8.147   0.111  0.00  0.00    +0.000 A 
ATOM      4  C   UNL     1      -0.229   9.496  -0.534  0.00  0.00    +0.000 A 
ATOM      5  C   UNL     1      -0.945  10.674   0.058  0.00  0.00    +0.000 A 
ATOM      6  C   UNL     1      -1.776  10.503   1.295  0.00  0.00    +0.000 A 
ATOM      7  O   UNL     1      -2.492  11.681   1.887  0.00  0.00    +0.000 OA
ATOM      8  C   UNL     1      -1.891   9.153   1.940  0.00  0.00    +0.000 A 
ATOM      9  C   UNL     1      -1.175   7.976   1.348  0.00  0.00    +0.000 A 
ENDBRANCH   1   8
BRANCH   1  10
ATOM     10  C   UNL     1      -4.175   8.631   3.062  0.00  0.00    +0.000 A 
ATOM     11  C   UNL     1      -4.831   7.793   4.119  0.00  0.00    +0.000 A 
ATOM     12  C   UNL     1      -6.284   7.442   4.003  0.00  0.00    +0.000 A 
ATOM     13  C   UNL     1      -7.083   7.929   2.830  0.00  0.00    +0.000 A 
ATOM     14  C   UNL     1      -6.427   8.767   1.773  0.00  0.00    +0.000 A 
ATOM     15  C   UNL     1      -4.973   9.118   1.889  0.00  0.00    +0.000 A 
ENDBRANCH   1  10
BRANCH   1  16
ATOM     16  C   UNL     1      -2.099   9.162   4.530  0.00  0.00    +0.000 C 
BRANCH  16  17
ATOM     17  C   UNL     1      -2.291  10.446   5.280  0.00  0.00    +0.000 C 
BRANCH  17  18
ATOM     18  N   UNL     1      -3.585  10.714   5.989  0.00  0.00    +0.000 NA
BRANCH  18  19
ATOM     19  C   UNL     1      -4.678  11.473   5.296  0.00  0.00    +0.000 C 
ATOM     20  C   UNL     1      -4.365  12.755   4.584  0.00  0.00    +0.000 C 
ATOM     21  C   UNL     1      -6.083  10.949   5.315  0.00  0.00    +0.000 C 
ENDBRANCH  18  19
BRANCH  18  22
ATOM     22  C   UNL     1      -3.787  10.223   7.392  0.00  0.00    +0.000 C 
ATOM     23  C   UNL     1      -3.715  11.184   8.541  0.00  0.00    +0.000 C 
ATOM     24  C   UNL     1      -4.060   8.770   7.646  0.00  0.00    +0.000 C 
ENDBRANCH  18  22
ENDBRANCH  17  18
ENDBRANCH  16  17
ENDBRANCH   1  16
TORSDOF 7
ENDMDL
MODEL 2
REMARK VINA RESULT:      -5.0      1.298      2.687
REMARK  Name = 
REMARK  7 active torsions:
REMARK  status: ('A' for Active; 'I' for Inactive)
REMARK    1  A    between atoms: C_7  and  C_8
REMARK    2  A    between atoms: C_8  and  C_9
REMARK    3  A    between atoms: C_8  and  C_18
REMARK    4  A    between atoms: C_9  and  C_10
REMARK    5  A    between atoms: C_10  and  N_11
REMARK    6  A    between atoms: N_11  and  C_12
REMARK    7  A    between atoms: N_11  and  C_15
REMARK                            x       y       z     vdW  Elec       q    Type
REMARK                         _______ _______ _______ _____ _____    ______ ____
ROOT
ATOM      1  C   UNL     1      -2.660   8.532   3.317  0.00  0.00    +0.000 C 
ENDROOT
BRANCH   1   8
ATOM      2  C   UNL     1      -0.194  11.245  -0.365  0.00  0.00    +0.000 C 
ATOM      3  C   UNL     1      -0.549   9.929   0.260  0.00  0.00    +0.000 A 
ATOM      4  C   UNL     1      -0.027   8.652  -0.330  0.00  0.00    +0.000 A 
ATOM      5  C   UNL     1      -0.383   7.336   0.295  0.00  0.00    +0.000 A 
ATOM      6  C   UNL     1      -1.260   7.296   1.511  0.00  0.00    +0.000 A 
ATOM      7  O   UNL     1      -1.616   5.980   2.136  0.00  0.00    +0.000 OA
ATOM      8  C   UNL     1      -1.782   8.572   2.101  0.00  0.00    +0.000 A 
ATOM      9  C   UNL     1      -1.427   9.889   1.476  0.00  0.00    +0.000 A 
ENDBRANCH   1   8
BRANCH   1  10
ATOM     10  C   UNL     1      -4.141   8.350   3.167  0.00  0.00    +0.000 A 
ATOM     11  C   UNL     1      -4.925   7.663   4.246  0.00  0.00    +0.000 A 
ATOM     12  C   UNL     1      -6.406   7.480   4.096  0.00  0.00    +0.000 A 
ATOM     13  C   UNL     1      -7.104   7.984   2.868  0.00  0.00    +0.000 A 
ATOM     14  C   UNL     1      -6.320   8.671   1.789  0.00  0.00    +0.000 A 
ATOM     15  C   UNL     1      -4.839   8.853   1.939  0.00  0.00    +0.000 A 
ENDBRANCH   1  10
BRANCH   1  16
ATOM     16  C   UNL     1      -2.056   8.675   4.683  0.00  0.00    +0.000 C 
BRANCH  16  17
ATOM     17  C   UNL     1      -2.103   9.997   5.389  0.00  0.00    +0.000 C 
BRANCH  17  18
ATOM     18  N   UNL     1      -3.399  10.501   5.953  0.00  0.00    +0.000 NA
BRANCH  18  19
ATOM     19  C   UNL     1      -3.768  10.194   7.374  0.00  0.00    +0.000 C 
ATOM     20  C   UNL     1      -4.118   8.790   7.771  0.00  0.00    +0.000 C 
ATOM     21  C   UNL     1      -3.786  11.290   8.398  0.00  0.00    +0.000 C 
ENDBRANCH  18  19
BRANCH  18  22
ATOM     22  C   UNL     1      -4.325  11.312   5.096  0.00  0.00    +0.000 C 
ATOM     23  C   UNL     1      -3.766  12.268   4.084  0.00  0.00    +0.000 C 
ATOM     24  C   UNL     1      -5.810  11.167   5.251  0.00  0.00    +0.000 C 
ENDBRANCH  18  22
ENDBRANCH  17  18
ENDBRANCH  16  17
ENDBRANCH   1  16
TORSDOF 7
ENDMDL
MODEL 3
REMARK VINA RESULT:      -4.8      1.842      5.178
REMARK  Name = 
REMARK  7 active torsions:
REMARK  status: ('A' for Active; 'I' for Inactive)
REMARK    1  A    between atoms: C_7  and  C_8
REMARK    2  A    between atoms: C_8  and  C_9
REMARK    3  A    between atoms: C_8  and  C_18
REMARK    4  A    between atoms: C_9  and  C_10
REMARK    5  A    between atoms: C_10  and  N_11
REMARK    6  A    between atoms: N_11  and  C_12
REMARK    7  A    between atoms: N_11  and  C_15
REMARK                            x       y       z     vdW  Elec       q    Type
REMARK                         _______ _______ _______ _____ _____    ______ ____
ROOT
ATOM      1  C   UNL     1      -3.108   9.277   2.543  0.00  0.00    +0.000 C 
ENDROOT
BRANCH   1   8
ATOM      2  C   UNL     1      -5.007   7.748   7.132  0.00  0.00    +0.000 C 
ATOM      3  C   UNL     1      -5.208   8.035   5.674  0.00  0.00    +0.000 A 
ATOM      4  C   UNL     1      -6.559   7.845   5.052  0.00  0.00    +0.000 A 
ATOM      5  C   UNL     1      -6.760   8.133   3.593  0.00  0.00    +0.000 A 
ATOM      6  C   UNL     1      -5.610   8.610   2.757  0.00  0.00    +0.000 A 
ATOM      7  O   UNL     1      -5.811   8.897   1.299  0.00  0.00    +0.000 OA
ATOM      8  C   UNL     1      -4.259   8.799   3.379  0.00  0.00    +0.000 A 
ATOM      9  C   UNL     1      -4.057   8.512   4.838  0.00  0.00    +0.000 A 
ENDBRANCH   1   8
BRANCH   1  10
ATOM     10  C   UNL     1      -2.197   8.284   1.886  0.00  0.00    +0.000 A 
ATOM     11  C   UNL     1      -2.398   6.815   2.113  0.00  0.00    +0.000 A 
ATOM     12  C   UNL     1      -1.487   5.822   1.455  0.00  0.00    +0.000 A 
ATOM     13  C   UNL     1      -0.373   6.297   0.570  0.00  0.00    +0.000 A 
ATOM     14  C   UNL     1      -0.171   7.766   0.342  0.00  0.00    +0.000 A 
ATOM     15  C   UNL     1      -1.083   8.759   1.000  0.00  0.00    +0.000 A 
ENDBRANCH   1  10
BRANCH   1  16
ATOM     16  C   UNL     1      -2.870  10.747   2.365  0.00  0.00    +0.000 C 
BRANCH  16  17
ATOM     17  C   UNL     1      -2.339  11.564   3.505  0.00  0.00    +0.000 C 
BRANCH  17  18
ATOM     18  N   UNL     1      -3.217  12.581   4.171  0.00  0.00    +0.000 NA
BRANCH  18  19
ATOM     19  C   UNL     1      -4.375  12.136   5.014  0.00  0.00    +0.000 C 
ATOM     20  C   UNL     1      -5.729  11.957   4.394  0.00  0.00    +0.000 C 
ATOM     21  C   UNL     1      -4.179  11.869   6.477  0.00  0.00    +0.000 C 
ENDBRANCH  18  19
BRANCH  18  22
ATOM     22  C   UNL     1      -2.937  14.044   3.994  0.00  0.00    +0.000 C 
ATOM     23  C   UNL     1      -1.590  14.498   3.515  0.00  0.00    +0.000 C 
ATOM     24  C   UNL     1      -4.005  15.054   4.296  0.00  0.00    +0.000 C 
ENDBRANCH  18  22
ENDBRANCH  17  18
ENDBRANCH  16  17
ENDBRANCH   1  16
TORSDOF 7
ENDMDL
MODEL 4
REMARK VINA RESULT:      -4.8      2.225      6.082
REMARK  Name = 
REMARK  7 active torsions:
REMARK  status: ('A' for Active; 'I' for Inactive)
REMARK    1  A    between atoms: C_7  and  C_8
REMARK    2  A    between atoms: C_8  and  C_9
REMARK    3  A    between atoms: C_8  and  C_18
REMARK    4  A    between atoms: C_9  and  C_10
REMARK    5  A    between atoms: C_10  and  N_11
REMARK    6  A    between atoms: N_11  and  C_12
REMARK    7  A    between atoms: N_11  and  C_15
REMARK                            x       y       z     vdW  Elec       q    Type
REMARK                         _______ _______ _______ _____ _____    ______ ____
ROOT
ATOM      1  C   UNL     1      -4.451  11.512   3.969  0.00  0.00    +0.000 C 
ENDROOT
BRANCH   1   8
ATOM      2  C   UNL     1      -7.490  15.641   4.816  0.00  0.00    +0.000 C 
ATOM      3  C   UNL     1      -6.423  14.696   5.283  0.00  0.00    +0.000 A 
ATOM      4  C   UNL     1      -5.807  14.871   6.639  0.00  0.00    +0.000 A 
ATOM      5  C   UNL     1      -4.739  13.926   7.106  0.00  0.00    +0.000 A 
ATOM      6  C   UNL     1      -4.288  12.806   6.216  0.00  0.00    +0.000 A 
ATOM      7  O   UNL     1      -3.220  11.862   6.682  0.00  0.00    +0.000 OA
ATOM      8  C   UNL     1      -4.903  12.631   4.859  0.00  0.00    +0.000 A 
ATOM      9  C   UNL     1      -5.971  13.576   4.393  0.00  0.00    +0.000 A 
ENDBRANCH   1   8
BRANCH   1  10
ATOM     10  C   UNL     1      -5.300  10.284   3.819  0.00  0.00    +0.000 A 
ATOM     11  C   UNL     1      -5.856   9.916   2.475  0.00  0.00    +0.000 A 
ATOM     12  C   UNL     1      -6.704   8.688   2.325  0.00  0.00    +0.000 A 
ATOM     13  C   UNL     1      -6.996   7.828   3.519  0.00  0.00    +0.000 A 
ATOM     14  C   UNL     1      -6.440   8.196   4.862  0.00  0.00    +0.000 A 
ATOM     15  C   UNL     1      -5.592   9.424   5.013  0.00  0.00    +0.000 A 
ENDBRANCH   1  10
BRANCH   1  16
ATOM     16  C   UNL     1      -3.151  11.620   3.229  0.00  0.00    +0.000 C 
BRANCH  16  17
ATOM     17  C   UNL     1      -2.024  10.684   3.552  0.00  0.00    +0.000 C 
BRANCH  17  18
ATOM     18  N   UNL     1      -1.890   9.388   2.810  0.00  0.00    +0.000 NA
BRANCH  18  19
ATOM     19  C   UNL     1      -1.192   9.353   1.483  0.00  0.00    +0.000 C 
ATOM     20  C   UNL     1       0.041   8.516   1.305  0.00  0.00    +0.000 C 
ATOM     21  C   UNL     1      -1.726  10.154   0.333  0.00  0.00    +0.000 C 
ENDBRANCH  18  19
BRANCH  18  22
ATOM     22  C   UNL     1      -2.453   8.127   3.394  0.00  0.00    +0.000 C 
ATOM     23  C   UNL     1      -2.219   7.800   4.839  0.00  0.00    +0.000 C 
ATOM     24  C   UNL     1      -3.251   7.193   2.534  0.00  0.00    +0.000 C 
ENDBRANCH  18  22
ENDBRANCH  17  18
ENDBRANCH  16  17
ENDBRANCH   1  16
TORSDOF 7
ENDMDL
MODEL 5
REMARK VINA RESULT:      -4.7     13.003     15.365
REMARK  Name = 
REMARK  7 active torsions:
REMARK  status: ('A' for Active; 'I' for Inactive)
REMARK    1  A    between atoms: C_7  and  C_8
REMARK    2  A    between atoms: C_8  and  C_9
REMARK    3  A    between atoms: C_8  and  C_18
REMARK    4  A    between atoms: C_9  and  C_10
REMARK    5  A    between atoms: C_10  and  N_11
REMARK    6  A    between atoms: N_11  and  C_12
REMARK    7  A    between atoms: N_11  and  C_15
REMARK                            x       y       z     vdW  Elec       q    Type
REMARK                         _______ _______ _______ _____ _____    ______ ____
ROOT
ATOM      1  C   UNL     1     -10.697  16.107  -7.496  0.00  0.00    +0.000 C 
ENDROOT
BRANCH   1   8
ATOM      2  C   UNL     1      -5.780  14.447  -7.223  0.00  0.00    +0.000 C 
ATOM      3  C   UNL     1      -6.963  15.114  -6.586  0.00  0.00    +0.000 A 
ATOM      4  C   UNL     1      -6.871  15.618  -5.177  0.00  0.00    +0.000 A 
ATOM      5  C   UNL     1      -8.054  16.285  -4.540  0.00  0.00    +0.000 A 
ATOM      6  C   UNL     1      -9.330  16.448  -5.313  0.00  0.00    +0.000 A 
ATOM      7  O   UNL     1     -10.513  17.115  -4.676  0.00  0.00    +0.000 OA
ATOM      8  C   UNL     1      -9.422  15.944  -6.723  0.00  0.00    +0.000 A 
ATOM      9  C   UNL     1      -8.239  15.277  -7.360  0.00  0.00    +0.000 A 
ENDBRANCH   1   8
BRANCH   1  10
ATOM     10  C   UNL     1     -11.695  14.989  -7.541  0.00  0.00    +0.000 A 
ATOM     11  C   UNL     1     -11.963  14.274  -8.832  0.00  0.00    +0.000 A 
ATOM     12  C   UNL     1     -12.961  13.156  -8.878  0.00  0.00    +0.000 A 
ATOM     13  C   UNL     1     -13.691  12.751  -7.631  0.00  0.00    +0.000 A 
ATOM     14  C   UNL     1     -13.423  13.465  -6.340  0.00  0.00    +0.000 A 
ATOM     15  C   UNL     1     -12.425  14.584  -6.295  0.00  0.00    +0.000 A 
ENDBRANCH   1  10
BRANCH   1  16
ATOM     16  C   UNL     1     -10.974  17.389  -8.224  0.00  0.00    +0.000 C 
BRANCH  16  17
ATOM     17  C   UNL     1     -10.744  17.476  -9.703  0.00  0.00    +0.000 C 
BRANCH  17  18
ATOM     18  N   UNL     1      -9.350  17.407 -10.252  0.00  0.00    +0.000 NA
BRANCH  18  19
ATOM     19  C   UNL     1      -8.982  16.333 -11.231  0.00  0.00    +0.000 C 
ATOM     20  C   UNL     1      -8.809  14.918 -10.764  0.00  0.00    +0.000 C 
ATOM     21  C   UNL     1      -8.786  16.673 -12.679  0.00  0.00    +0.000 C 
ENDBRANCH  18  19
BRANCH  18  22
ATOM     22  C   UNL     1      -8.323  18.412  -9.820  0.00  0.00    +0.000 C 
ATOM     23  C   UNL     1      -6.962  17.955  -9.387  0.00  0.00    +0.000 C 
ATOM     24  C   UNL     1      -8.659  19.874  -9.820  0.00  0.00    +0.000 C 
ENDBRANCH  18  22
ENDBRANCH  17  18
ENDBRANCH  16  17
ENDBRANCH   1  16
TORSDOF 7
ENDMDL
MODEL 6
REMARK VINA RESULT:      -4.7     13.324     16.093
REMARK  Name = 
REMARK  7 active torsions:
REMARK  status: ('A' for Active; 'I' for Inactive)
REMARK    1  A    between atoms: C_7  and  C_8
REMARK    2  A    between atoms: C_8  and  C_9
REMARK    3  A    between atoms: C_8  and  C_18
REMARK    4  A    between atoms: C_9  and  C_10
REMARK    5  A    between atoms: C_10  and  N_11
REMARK    6  A    between atoms: N_11  and  C_12
REMARK    7  A    between atoms: N_11  and  C_15
REMARK                            x       y       z     vdW  Elec       q    Type
REMARK                         _______ _______ _______ _____ _____    ______ ____
ROOT
ATOM      1  C   UNL     1     -10.401  15.986  -7.709  0.00  0.00    +0.000 C 
ENDROOT
BRANCH   1   8
ATOM      2  C   UNL     1     -13.356  12.149  -9.591  0.00  0.00    +0.000 C 
ATOM      3  C   UNL     1     -13.028  13.117  -8.493  0.00  0.00    +0.000 A 
ATOM      4  C   UNL     1     -13.850  13.135  -7.238  0.00  0.00    +0.000 A 
ATOM      5  C   UNL     1     -13.522  14.103  -6.141  0.00  0.00    +0.000 A 
ATOM      6  C   UNL     1     -12.373  15.054  -6.297  0.00  0.00    +0.000 A 
ATOM      7  O   UNL     1     -12.045  16.022  -5.200  0.00  0.00    +0.000 OA
ATOM      8  C   UNL     1     -11.551  15.036  -7.552  0.00  0.00    +0.000 A 
ATOM      9  C   UNL     1     -11.878  14.068  -8.650  0.00  0.00    +0.000 A 
ENDBRANCH   1   8
BRANCH   1  10
ATOM     10  C   UNL     1      -9.031  15.589  -7.245  0.00  0.00    +0.000 A 
ATOM     11  C   UNL     1      -8.624  15.822  -5.820  0.00  0.00    +0.000 A 
ATOM     12  C   UNL     1      -7.254  15.425  -5.356  0.00  0.00    +0.000 A 
ATOM     13  C   UNL     1      -6.291  14.794  -6.317  0.00  0.00    +0.000 A 
ATOM     14  C   UNL     1      -6.697  14.561  -7.742  0.00  0.00    +0.000 A 
ATOM     15  C   UNL     1      -8.067  14.958  -8.206  0.00  0.00    +0.000 A 
ENDBRANCH   1  10
BRANCH   1  16
ATOM     16  C   UNL     1     -10.621  17.334  -8.329  0.00  0.00    +0.000 C 
BRANCH  16  17
ATOM     17  C   UNL     1     -10.565  17.491  -9.820  0.00  0.00    +0.000 C 
BRANCH  17  18
ATOM     18  N   UNL     1      -9.243  17.654 -10.508  0.00  0.00    +0.000 NA
BRANCH  18  19
ATOM     19  C   UNL     1      -8.924  16.834 -11.723  0.00  0.00    +0.000 C 
ATOM     20  C   UNL     1      -8.558  15.386 -11.576  0.00  0.00    +0.000 C 
ATOM     21  C   UNL     1      -8.971  17.461 -13.085  0.00  0.00    +0.000 C 
ENDBRANCH  18  19
BRANCH  18  22
ATOM     22  C   UNL     1      -8.239  18.636  -9.982  0.00  0.00    +0.000 C 
ATOM     23  C   UNL     1      -6.932  18.149  -9.430  0.00  0.00    +0.000 C 
ATOM     24  C   UNL     1      -8.542  20.105 -10.007  0.00  0.00    +0.000 C 
ENDBRANCH  18  22
ENDBRANCH  17  18
ENDBRANCH  16  17
ENDBRANCH   1  16
TORSDOF 7
ENDMDL
MODEL 7
REMARK VINA RESULT:      -4.7     13.180     16.000
REMARK  Name = 
REMARK  7 active torsions:
REMARK  status: ('A' for Active; 'I' for Inactive)
REMARK    1  A    between atoms: C_7  and  C_8
REMARK    2  A    between atoms: C_8  and  C_9
REMARK    3  A    between atoms: C_8  and  C_18
REMARK    4  A    between atoms: C_9  and  C_10
REMARK    5  A    between atoms: C_10  and  N_11
REMARK    6  A    between atoms: N_11  and  C_12
REMARK    7  A    between atoms: N_11  and  C_15
REMARK                            x       y       z     vdW  Elec       q    Type
REMARK                         _______ _______ _______ _____ _____    ______ ____
ROOT
ATOM      1  C   UNL     1     -10.006  16.192  -7.583  0.00  0.00    +0.000 C 
ENDROOT
BRANCH   1   8
ATOM      2  C   UNL     1     -13.149  12.519  -9.489  0.00  0.00    +0.000 C 
ATOM      3  C   UNL     1     -12.781  13.472  -8.390  0.00  0.00    +0.000 A 
ATOM      4  C   UNL     1     -13.616  13.541  -7.146  0.00  0.00    +0.000 A 
ATOM      5  C   UNL     1     -13.247  14.494  -6.047  0.00  0.00    +0.000 A 
ATOM      6  C   UNL     1     -12.044  15.377  -6.193  0.00  0.00    +0.000 A 
ATOM      7  O   UNL     1     -11.676  16.330  -5.094  0.00  0.00    +0.000 OA
ATOM      8  C   UNL     1     -11.209  15.308  -7.437  0.00  0.00    +0.000 A 
ATOM      9  C   UNL     1     -11.577  14.355  -8.536  0.00  0.00    +0.000 A 
ENDBRANCH   1   8
BRANCH   1  10
ATOM     10  C   UNL     1      -8.664  15.715  -7.112  0.00  0.00    +0.000 A 
ATOM     11  C   UNL     1      -7.796  14.897  -8.022  0.00  0.00    +0.000 A 
ATOM     12  C   UNL     1      -6.454  14.420  -7.551  0.00  0.00    +0.000 A 
ATOM     13  C   UNL     1      -5.980  14.761  -6.170  0.00  0.00    +0.000 A 
ATOM     14  C   UNL     1      -6.847  15.579  -5.259  0.00  0.00    +0.000 A 
ATOM     15  C   UNL     1      -8.189  16.056  -5.730  0.00  0.00    +0.000 A 
ENDBRANCH   1  10
BRANCH   1  16
ATOM     16  C   UNL     1     -10.144  17.552  -8.199  0.00  0.00    +0.000 C 
BRANCH  16  17
ATOM     17  C   UNL     1     -10.193  17.698  -9.691  0.00  0.00    +0.000 C 
BRANCH  17  18
ATOM     18  N   UNL     1      -8.933  17.586 -10.497  0.00  0.00    +0.000 NA
BRANCH  18  19
ATOM     19  C   UNL     1      -7.782  18.507 -10.221  0.00  0.00    +0.000 C 
ATOM     20  C   UNL     1      -6.692  18.084  -9.281  0.00  0.00    +0.000 C 
ATOM     21  C   UNL     1      -7.721  19.852 -10.883  0.00  0.00    +0.000 C 
ENDBRANCH  18  19
BRANCH  18  22
ATOM     22  C   UNL     1      -8.824  16.554 -11.580  0.00  0.00    +0.000 C 
ATOM     23  C   UNL     1      -8.596  15.115 -11.224  0.00  0.00    +0.000 C 
ATOM     24  C   UNL     1      -8.944  16.960 -13.019  0.00  0.00    +0.000 C 
ENDBRANCH  18  22
ENDBRANCH  17  18
ENDBRANCH  16  17
ENDBRANCH   1  16
TORSDOF 7
ENDMDL
MODEL 8
REMARK VINA RESULT:      -4.7     12.868     15.330
REMARK  Name = 
REMARK  7 active torsions:
REMARK  status: ('A' for Active; 'I' for Inactive)
REMARK    1  A    between atoms: C_7  and  C_8
REMARK    2  A    between atoms: C_8  and  C_9
REMARK    3  A    between atoms: C_8  and  C_18
REMARK    4  A    between atoms: C_9  and  C_10
REMARK    5  A    between atoms: C_10  and  N_11
REMARK    6  A    between atoms: N_11  and  C_12
REMARK    7  A    between atoms: N_11  and  C_15
REMARK                            x       y       z     vdW  Elec       q    Type
REMARK                         _______ _______ _______ _____ _____    ______ ____
ROOT
ATOM      1  C   UNL     1     -10.967  15.342  -7.948  0.00  0.00    +0.000 C 
ENDROOT
BRANCH   1   8
ATOM      2  C   UNL     1     -14.478  11.559  -8.542  0.00  0.00    +0.000 C 
ATOM      3  C   UNL     1     -14.067  12.990  -8.724  0.00  0.00    +0.000 A 
ATOM      4  C   UNL     1     -15.001  13.960  -9.386  0.00  0.00    +0.000 A 
ATOM      5  C   UNL     1     -14.589  15.391  -9.568  0.00  0.00    +0.000 A 
ATOM      6  C   UNL     1     -13.245  15.852  -9.089  0.00  0.00    +0.000 A 
ATOM      7  O   UNL     1     -12.834  17.283  -9.271  0.00  0.00    +0.000 OA
ATOM      8  C   UNL     1     -12.311  14.881  -8.427  0.00  0.00    +0.000 A 
ATOM      9  C   UNL     1     -12.722  13.450  -8.245  0.00  0.00    +0.000 A 
ENDBRANCH   1   8
BRANCH   1  10
ATOM     10  C   UNL     1      -9.893  15.682  -8.940  0.00  0.00    +0.000 A 
ATOM     11  C   UNL     1      -9.477  14.675  -9.970  0.00  0.00    +0.000 A 
ATOM     12  C   UNL     1      -8.404  15.015 -10.961  0.00  0.00    +0.000 A 
ATOM     13  C   UNL     1      -7.747  16.362 -10.922  0.00  0.00    +0.000 A 
ATOM     14  C   UNL     1      -8.163  17.370  -9.892  0.00  0.00    +0.000 A 
ATOM     15  C   UNL     1      -9.236  17.030  -8.901  0.00  0.00    +0.000 A 
ENDBRANCH   1  10
BRANCH   1  16
ATOM     16  C   UNL     1     -10.695  15.463  -6.478  0.00  0.00    +0.000 C 
BRANCH  16  17
ATOM     17  C   UNL     1      -9.483  14.809  -5.883  0.00  0.00    +0.000 C 
BRANCH  17  18
ATOM     18  N   UNL     1      -8.263  15.627  -5.580  0.00  0.00    +0.000 NA
BRANCH  18  19
ATOM     19  C   UNL     1      -8.396  16.931  -4.851  0.00  0.00    +0.000 C 
ATOM     20  C   UNL     1      -7.955  18.206  -5.507  0.00  0.00    +0.000 C 
ATOM     21  C   UNL     1      -8.971  16.961  -3.465  0.00  0.00    +0.000 C 
ENDBRANCH  18  19
BRANCH  18  22
ATOM     22  C   UNL     1      -6.909  15.141  -6.006  0.00  0.00    +0.000 C 
ATOM     23  C   UNL     1      -5.783  15.095  -5.016  0.00  0.00    +0.000 C 
ATOM     24  C   UNL     1      -6.682  14.701  -7.421  0.00  0.00    +0.000 C 
ENDBRANCH  18  22
ENDBRANCH  17  18
ENDBRANCH  16  17
ENDBRANCH   1  16
TORSDOF 7
ENDMDL
MODEL 9
REMARK VINA RESULT:      -4.6     17.122     20.190
REMARK  Name = 
REMARK  7 active torsions:
REMARK  status: ('A' for Active; 'I' for Inactive)
REMARK    1  A    between atoms: C_7  and  C_8
REMARK    2  A    between atoms: C_8  and  C_9
REMARK    3  A    between atoms: C_8  and  C_18
REMARK    4  A    between atoms: C_9  and  C_10
REMARK    5  A    between atoms: C_10  and  N_11
REMARK    6  A    between atoms: N_11  and  C_12
REMARK    7  A    between atoms: N_11  and  C_15
REMARK                            x       y       z     vdW  Elec       q    Type
REMARK                         _______ _______ _______ _____ _____    ______ ____
ROOT
ATOM      1  C   UNL     1     -18.171  11.556  -9.896  0.00  0.00    +0.000 C 
ENDROOT
BRANCH   1   8
ATOM      2  C   UNL     1     -20.378  14.580  -6.293  0.00  0.00    +0.000 C 
ATOM      3  C   UNL     1     -19.952  14.350  -7.712  0.00  0.00    +0.000 A 
ATOM      4  C   UNL     1     -20.203  15.404  -8.750  0.00  0.00    +0.000 A 
ATOM      5  C   UNL     1     -19.777  15.175 -10.170  0.00  0.00    +0.000 A 
ATOM      6  C   UNL     1     -19.100  13.892 -10.552  0.00  0.00    +0.000 A 
ATOM      7  O   UNL     1     -18.674  13.663 -11.972  0.00  0.00    +0.000 OA
ATOM      8  C   UNL     1     -18.848  12.839  -9.514  0.00  0.00    +0.000 A 
ATOM      9  C   UNL     1     -19.274  13.068  -8.094  0.00  0.00    +0.000 A 
ENDBRANCH   1   8
BRANCH   1  10
ATOM     10  C   UNL     1     -18.983  10.399 -10.398  0.00  0.00    +0.000 A 
ATOM     11  C   UNL     1     -18.306   9.116 -10.777  0.00  0.00    +0.000 A 
ATOM     12  C   UNL     1     -19.118   7.959 -11.279  0.00  0.00    +0.000 A 
ATOM     13  C   UNL     1     -20.608   8.086 -11.402  0.00  0.00    +0.000 A 
ATOM     14  C   UNL     1     -21.285   9.369 -11.023  0.00  0.00    +0.000 A 
ATOM     15  C   UNL     1     -20.472  10.526 -10.521  0.00  0.00    +0.000 A 
ENDBRANCH   1  10
BRANCH   1  16
ATOM     16  C   UNL     1     -16.681  11.430  -9.776  0.00  0.00    +0.000 C 
BRANCH  16  17
ATOM     17  C   UNL     1     -15.800  12.599 -10.108  0.00  0.00    +0.000 C 
BRANCH  17  18
ATOM     18  N   UNL     1     -15.010  13.273  -9.026  0.00  0.00    +0.000 NA
BRANCH  18  19
ATOM     19  C   UNL     1     -13.512  13.309  -9.103  0.00  0.00    +0.000 C 
ATOM     20  C   UNL     1     -12.765  14.512  -8.608  0.00  0.00    +0.000 C 
ATOM     21  C   UNL     1     -12.762  12.143  -9.676  0.00  0.00    +0.000 C 
ENDBRANCH  18  19
BRANCH  18  22
ATOM     22  C   UNL     1     -15.716  13.910  -7.866  0.00  0.00    +0.000 C 
ATOM     23  C   UNL     1     -15.792  13.195  -6.549  0.00  0.00    +0.000 C 
ATOM     24  C   UNL     1     -16.348  15.261  -8.023  0.00  0.00    +0.000 C 
ENDBRANCH  18  22
ENDBRANCH  17  18
ENDBRANCH  16  17
ENDBRANCH   1  16
TORSDOF 7
ENDMDL
