MODEL 1
REMARK VINA RESULT:      -6.6      0.000      0.000
REMARK  Name = 
REMARK  6 active torsions:
REMARK  status: ('A' for Active; 'I' for Inactive)
REMARK    1  A    between atoms: C_5  and  C_6
REMARK    2  A    between atoms: C_6  and  C_7
REMARK    3  A    between atoms: C_6  and  O_13
REMARK    4  A    between atoms: C_7  and  N_8
REMARK    5  A    between atoms: O_13  and  C_14
REMARK    6  A    between atoms: C_14  and  C_15
REMARK                            x       y       z     vdW  Elec       q    Type
REMARK                         _______ _______ _______ _____ _____    ______ ____
ROOT
ATOM      1  C   UNL     1     -11.057  15.558  -6.911  0.00  0.00    +0.000 C 
ENDROOT
BRANCH   1   6
ATOM      2 CL   UNL     1      -5.117  14.823  -7.324  0.00  0.00    +0.000 Cl
ATOM      3  C   UNL     1      -6.602  15.007  -7.221  0.00  0.00    +0.000 A 
ATOM      4  C   UNL     1      -7.268  14.994  -5.876  0.00  0.00    +0.000 A 
ATOM      5  C   UNL     1      -8.753  15.178  -5.773  0.00  0.00    +0.000 A 
ATOM      6  C   UNL     1      -9.573  15.375  -7.015  0.00  0.00    +0.000 A 
ATOM      7  C   UNL     1      -8.906  15.387  -8.358  0.00  0.00    +0.000 A 
ATOM      8 CL   UNL     1      -9.726  15.584  -9.599  0.00  0.00    +0.000 Cl
ATOM      9  C   UNL     1      -7.421  15.203  -8.461  0.00  0.00    +0.000 A 
ENDBRANCH   1   6
BRANCH   1  10
ATOM     10  C   UNL     1     -11.619  16.810  -6.304  0.00  0.00    +0.000 C 
BRANCH  10  11
ATOM     11  N   UNL     1     -11.910  16.866  -4.834  0.00  0.00    +0.000 N 
ATOM     12  C   UNL     1     -10.919  17.175  -3.750  0.00  0.00    +0.000 A 
ATOM     13  C   UNL     1     -11.639  17.123  -2.436  0.00  0.00    +0.000 A 
ATOM     14  N   UNL     1     -13.074  16.782  -2.707  0.00  0.00    +0.000 NA
ATOM     15  C   UNL     1     -13.242  16.623  -4.189  0.00  0.00    +0.000 A 
ENDBRANCH  10  11
ENDBRANCH   1  10
BRANCH   1  16
ATOM     16  O   UNL     1     -11.982  14.489  -7.414  0.00  0.00    +0.000 OA
BRANCH  16  17
ATOM     17  C   UNL     1     -12.908  13.790  -6.464  0.00  0.00    +0.000 C 
BRANCH  17  18
ATOM     18  C   UNL     1     -14.374  13.707  -6.770  0.00  0.00    +0.000 A 
ATOM     19  C   UNL     1     -15.465  14.466  -6.076  0.00  0.00    +0.000 A 
ATOM     20  S   UNL     1     -16.772  14.078  -6.701  0.00  0.00    +0.000 S 
ATOM     21  C   UNL     1     -16.488  13.078  -7.784  0.00  0.00    +0.000 A 
ATOM     22  C   UNL     1     -17.388  12.347  -8.736  0.00  0.00    +0.000 A 
ATOM     23 CL   UNL     1     -18.870  12.577  -8.693  0.00  0.00    +0.000 Cl
ATOM     24  C   UNL     1     -16.806  11.387  -9.730  0.00  0.00    +0.000 A 
ATOM     25  C   UNL     1     -15.324  11.158  -9.773  0.00  0.00    +0.000 A 
ATOM     26  C   UNL     1     -14.424  11.889  -8.821  0.00  0.00    +0.000 A 
ATOM     27  C   UNL     1     -15.006  12.849  -7.826  0.00  0.00    +0.000 A 
ENDBRANCH  17  18
ENDBRANCH  16  17
ENDBRANCH   1  16
TORSDOF 6
ENDMDL
MODEL 2
REMARK VINA RESULT:      -6.3      2.667      4.014
REMARK  Name = 
REMARK  6 active torsions:
REMARK  status: ('A' for Active; 'I' for Inactive)
REMARK    1  A    between atoms: C_5  and  C_6
REMARK    2  A    between atoms: C_6  and  C_7
REMARK    3  A    between atoms: C_6  and  O_13
REMARK    4  A    between atoms: C_7  and  N_8
REMARK    5  A    between atoms: O_13  and  C_14
REMARK    6  A    between atoms: C_14  and  C_15
REMARK                            x       y       z     vdW  Elec       q    Type
REMARK                         _______ _______ _______ _____ _____    ______ ____
ROOT
ATOM      1  C   UNL     1     -12.770  15.802  -7.168  0.00  0.00    +0.000 C 
ENDROOT
BRANCH   1   6
ATOM      2 CL   UNL     1      -6.937  15.103  -8.389  0.00  0.00    +0.000 Cl
ATOM      3  C   UNL     1      -8.395  15.278  -8.083  0.00  0.00    +0.000 A 
ATOM      4  C   UNL     1      -9.425  14.916  -9.112  0.00  0.00    +0.000 A 
ATOM      5  C   UNL     1     -10.883  15.091  -8.807  0.00  0.00    +0.000 A 
ATOM      6  C   UNL     1     -11.312  15.628  -7.473  0.00  0.00    +0.000 A 
ATOM      7  C   UNL     1     -10.281  15.989  -6.445  0.00  0.00    +0.000 A 
ATOM      8 CL   UNL     1     -10.710  16.526  -5.111  0.00  0.00    +0.000 Cl
ATOM      9  C   UNL     1      -8.823  15.815  -6.750  0.00  0.00    +0.000 A 
ENDBRANCH   1   6
BRANCH   1  10
ATOM     10  C   UNL     1     -13.570  16.842  -7.895  0.00  0.00    +0.000 C 
BRANCH  10  11
ATOM     11  N   UNL     1     -14.730  16.432  -8.753  0.00  0.00    +0.000 N 
ATOM     12  C   UNL     1     -16.152  16.880  -8.585  0.00  0.00    +0.000 A 
ATOM     13  C   UNL     1     -16.973  16.227  -9.657  0.00  0.00    +0.000 A 
ATOM     14  N   UNL     1     -16.059  15.376 -10.487  0.00  0.00    +0.000 NA
ATOM     15  C   UNL     1     -14.672  15.503  -9.928  0.00  0.00    +0.000 A 
ENDBRANCH  10  11
ENDBRANCH   1  10
BRANCH   1  16
ATOM     16  O   UNL     1     -13.429  14.936  -6.135  0.00  0.00    +0.000 OA
BRANCH  16  17
ATOM     17  C   UNL     1     -13.451  13.446  -6.309  0.00  0.00    +0.000 C 
BRANCH  17  18
ATOM     18  C   UNL     1     -14.331  12.826  -7.351  0.00  0.00    +0.000 A 
ATOM     19  C   UNL     1     -13.888  11.896  -8.442  0.00  0.00    +0.000 A 
ATOM     20  S   UNL     1     -15.093  11.521  -9.252  0.00  0.00    +0.000 S 
ATOM     21  C   UNL     1     -16.283  12.219  -8.662  0.00  0.00    +0.000 A 
ATOM     22  C   UNL     1     -17.734  12.225  -9.042  0.00  0.00    +0.000 A 
ATOM     23 CL   UNL     1     -18.204  11.418 -10.217  0.00  0.00    +0.000 Cl
ATOM     24  C   UNL     1     -18.714  13.036  -8.249  0.00  0.00    +0.000 A 
ATOM     25  C   UNL     1     -18.243  13.842  -7.074  0.00  0.00    +0.000 A 
ATOM     26  C   UNL     1     -16.793  13.837  -6.694  0.00  0.00    +0.000 A 
ATOM     27  C   UNL     1     -15.812  13.025  -7.488  0.00  0.00    +0.000 A 
ENDBRANCH  17  18
ENDBRANCH  16  17
ENDBRANCH   1  16
TORSDOF 6
ENDMDL
MODEL 3
REMARK VINA RESULT:      -6.3      1.231      1.830
REMARK  Name = 
REMARK  6 active torsions:
REMARK  status: ('A' for Active; 'I' for Inactive)
REMARK    1  A    between atoms: C_5  and  C_6
REMARK    2  A    between atoms: C_6  and  C_7
REMARK    3  A    between atoms: C_6  and  O_13
REMARK    4  A    between atoms: C_7  and  N_8
REMARK    5  A    between atoms: O_13  and  C_14
REMARK    6  A    between atoms: C_14  and  C_15
REMARK                            x       y       z     vdW  Elec       q    Type
REMARK                         _______ _______ _______ _____ _____    ______ ____
ROOT
ATOM      1  C   UNL     1     -11.362  15.257  -6.305  0.00  0.00    +0.000 C 
ENDROOT
BRANCH   1   6
ATOM      2 CL   UNL     1      -5.657  15.328  -8.162  0.00  0.00    +0.000 Cl
ATOM      3  C   UNL     1      -7.083  15.311  -7.698  0.00  0.00    +0.000 A 
ATOM      4  C   UNL     1      -7.395  15.167  -6.237  0.00  0.00    +0.000 A 
ATOM      5  C   UNL     1      -8.821  15.149  -5.773  0.00  0.00    +0.000 A 
ATOM      6  C   UNL     1      -9.936  15.275  -6.770  0.00  0.00    +0.000 A 
ATOM      7  C   UNL     1      -9.623  15.419  -8.229  0.00  0.00    +0.000 A 
ATOM      8 CL   UNL     1     -10.738  15.545  -9.226  0.00  0.00    +0.000 Cl
ATOM      9  C   UNL     1      -8.197  15.436  -8.693  0.00  0.00    +0.000 A 
ENDBRANCH   1   6
BRANCH   1  10
ATOM     10  C   UNL     1     -12.023  16.528  -5.863  0.00  0.00    +0.000 C 
BRANCH  10  11
ATOM     11  N   UNL     1     -12.218  16.804  -4.401  0.00  0.00    +0.000 N 
ATOM     12  C   UNL     1     -11.140  17.156  -3.419  0.00  0.00    +0.000 A 
ATOM     13  C   UNL     1     -11.780  17.345  -2.076  0.00  0.00    +0.000 A 
ATOM     14  N   UNL     1     -13.254  17.109  -2.228  0.00  0.00    +0.000 NA
ATOM     15  C   UNL     1     -13.524  16.774  -3.665  0.00  0.00    +0.000 A 
ENDBRANCH  10  11
ENDBRANCH   1  10
BRANCH   1  16
ATOM     16  O   UNL     1     -12.127  13.967  -6.283  0.00  0.00    +0.000 OA
BRANCH  16  17
ATOM     17  C   UNL     1     -13.627  13.984  -6.260  0.00  0.00    +0.000 C 
BRANCH  17  18
ATOM     18  C   UNL     1     -14.401  13.172  -7.255  0.00  0.00    +0.000 A 
ATOM     19  C   UNL     1     -13.831  12.152  -8.195  0.00  0.00    +0.000 A 
ATOM     20  S   UNL     1     -14.959  11.587  -9.007  0.00  0.00    +0.000 S 
ATOM     21  C   UNL     1     -16.227  12.258  -8.567  0.00  0.00    +0.000 A 
ATOM     22  C   UNL     1     -17.651  12.104  -9.013  0.00  0.00    +0.000 A 
ATOM     23 CL   UNL     1     -17.996  11.125 -10.095  0.00  0.00    +0.000 Cl
ATOM     24  C   UNL     1     -18.730  12.929  -8.376  0.00  0.00    +0.000 A 
ATOM     25  C   UNL     1     -18.385  13.909  -7.294  0.00  0.00    +0.000 A 
ATOM     26  C   UNL     1     -16.961  14.063  -6.848  0.00  0.00    +0.000 A 
ATOM     27  C   UNL     1     -15.882  13.238  -7.485  0.00  0.00    +0.000 A 
ENDBRANCH  17  18
ENDBRANCH  16  17
ENDBRANCH   1  16
TORSDOF 6
ENDMDL
MODEL 4
REMARK VINA RESULT:      -6.2      1.645      2.272
REMARK  Name = 
REMARK  6 active torsions:
REMARK  status: ('A' for Active; 'I' for Inactive)
REMARK    1  A    between atoms: C_5  and  C_6
REMARK    2  A    between atoms: C_6  and  C_7
REMARK    3  A    between atoms: C_6  and  O_13
REMARK    4  A    between atoms: C_7  and  N_8
REMARK    5  A    between atoms: O_13  and  C_14
REMARK    6  A    between atoms: C_14  and  C_15
REMARK                            x       y       z     vdW  Elec       q    Type
REMARK                         _______ _______ _______ _____ _____    ______ ____
ROOT
ATOM      1  C   UNL     1     -11.504  15.921  -6.279  0.00  0.00    +0.000 C 
ENDROOT
BRANCH   1   6
ATOM      2 CL   UNL     1      -5.784  14.687  -7.605  0.00  0.00    +0.000 Cl
ATOM      3  C   UNL     1      -7.214  14.995  -7.274  0.00  0.00    +0.000 A 
ATOM      4  C   UNL     1      -7.610  15.284  -5.856  0.00  0.00    +0.000 A 
ATOM      5  C   UNL     1      -9.040  15.592  -5.525  0.00  0.00    +0.000 A 
ATOM      6  C   UNL     1     -10.075  15.612  -6.611  0.00  0.00    +0.000 A 
ATOM      7  C   UNL     1      -9.678  15.323  -8.029  0.00  0.00    +0.000 A 
ATOM      8 CL   UNL     1     -10.713  15.343  -9.115  0.00  0.00    +0.000 Cl
ATOM      9  C   UNL     1      -8.249  15.015  -8.360  0.00  0.00    +0.000 A 
ENDBRANCH   1   6
BRANCH   1  10
ATOM     10  C   UNL     1     -12.060  17.288  -6.548  0.00  0.00    +0.000 C 
BRANCH  10  11
ATOM     11  N   UNL     1     -13.442  17.439  -7.110  0.00  0.00    +0.000 N 
ATOM     12  C   UNL     1     -13.896  16.990  -8.467  0.00  0.00    +0.000 A 
ATOM     13  C   UNL     1     -15.347  17.340  -8.610  0.00  0.00    +0.000 A 
ATOM     14  N   UNL     1     -15.791  18.004  -7.340  0.00  0.00    +0.000 NA
ATOM     15  C   UNL     1     -14.613  18.066  -6.413  0.00  0.00    +0.000 A 
ENDBRANCH  10  11
ENDBRANCH   1  10
BRANCH   1  16
ATOM     16  O   UNL     1     -12.380  14.861  -5.678  0.00  0.00    +0.000 OA
BRANCH  16  17
ATOM     17  C   UNL     1     -12.928  13.763  -6.540  0.00  0.00    +0.000 C 
BRANCH  17  18
ATOM     18  C   UNL     1     -14.399  13.696  -6.824  0.00  0.00    +0.000 A 
ATOM     19  C   UNL     1     -15.470  14.472  -6.117  0.00  0.00    +0.000 A 
ATOM     20  S   UNL     1     -16.791  14.098  -6.721  0.00  0.00    +0.000 S 
ATOM     21  C   UNL     1     -16.536  13.090  -7.803  0.00  0.00    +0.000 A 
ATOM     22  C   UNL     1     -17.458  12.366  -8.739  0.00  0.00    +0.000 A 
ATOM     23 CL   UNL     1     -18.936  12.614  -8.675  0.00  0.00    +0.000 Cl
ATOM     24  C   UNL     1     -16.903  11.394  -9.737  0.00  0.00    +0.000 A 
ATOM     25  C   UNL     1     -15.425  11.146  -9.801  0.00  0.00    +0.000 A 
ATOM     26  C   UNL     1     -14.502  11.870  -8.865  0.00  0.00    +0.000 A 
ATOM     27  C   UNL     1     -15.058  12.842  -7.867  0.00  0.00    +0.000 A 
ENDBRANCH  17  18
ENDBRANCH  16  17
ENDBRANCH   1  16
TORSDOF 6
ENDMDL
MODEL 5
REMARK VINA RESULT:      -6.2      2.939      5.522
REMARK  Name = 
REMARK  6 active torsions:
REMARK  status: ('A' for Active; 'I' for Inactive)
REMARK    1  A    between atoms: C_5  and  C_6
REMARK    2  A    between atoms: C_6  and  C_7
REMARK    3  A    between atoms: C_6  and  O_13
REMARK    4  A    between atoms: C_7  and  N_8
REMARK    5  A    between atoms: O_13  and  C_14
REMARK    6  A    between atoms: C_14  and  C_15
REMARK                            x       y       z     vdW  Elec       q    Type
REMARK                         _______ _______ _______ _____ _____    ______ ____
ROOT
ATOM      1  C   UNL     1     -12.508  15.441  -7.103  0.00  0.00    +0.000 C 
ENDROOT
BRANCH   1   6
ATOM      2 CL   UNL     1     -17.857  18.157  -7.183  0.00  0.00    +0.000 Cl
ATOM      3  C   UNL     1     -16.520  17.478  -7.163  0.00  0.00    +0.000 A 
ATOM      4  C   UNL     1     -15.775  17.326  -5.870  0.00  0.00    +0.000 A 
ATOM      5  C   UNL     1     -14.438  16.647  -5.850  0.00  0.00    +0.000 A 
ATOM      6  C   UNL     1     -13.845  16.120  -7.124  0.00  0.00    +0.000 A 
ATOM      7  C   UNL     1     -14.590  16.272  -8.416  0.00  0.00    +0.000 A 
ATOM      8 CL   UNL     1     -13.997  15.745  -9.690  0.00  0.00    +0.000 Cl
ATOM      9  C   UNL     1     -15.927  16.951  -8.436  0.00  0.00    +0.000 A 
ENDBRANCH   1   6
BRANCH   1  10
ATOM     10  C   UNL     1     -11.250  16.258  -7.125  0.00  0.00    +0.000 C 
BRANCH  10  11
ATOM     11  N   UNL     1     -10.011  15.709  -7.766  0.00  0.00    +0.000 N 
ATOM     12  C   UNL     1      -8.705  15.444  -7.077  0.00  0.00    +0.000 A 
ATOM     13  C   UNL     1      -7.745  14.901  -8.094  0.00  0.00    +0.000 A 
ATOM     14  N   UNL     1      -8.458  14.830  -9.412  0.00  0.00    +0.000 NA
ATOM     15  C   UNL     1      -9.858  15.330  -9.209  0.00  0.00    +0.000 A 
ENDBRANCH  10  11
ENDBRANCH   1  10
BRANCH   1  16
ATOM     16  O   UNL     1     -12.428  13.943  -7.061  0.00  0.00    +0.000 OA
BRANCH  16  17
ATOM     17  C   UNL     1     -13.607  13.141  -6.596  0.00  0.00    +0.000 C 
BRANCH  17  18
ATOM     18  C   UNL     1     -14.571  12.576  -7.596  0.00  0.00    +0.000 A 
ATOM     19  C   UNL     1     -14.237  11.611  -8.695  0.00  0.00    +0.000 A 
ATOM     20  S   UNL     1     -15.498  11.314  -9.451  0.00  0.00    +0.000 S 
ATOM     21  C   UNL     1     -16.612  12.097  -8.820  0.00  0.00    +0.000 A 
ATOM     22  C   UNL     1     -18.073  12.200  -9.141  0.00  0.00    +0.000 A 
ATOM     23 CL   UNL     1     -18.646  11.420 -10.288  0.00  0.00    +0.000 Cl
ATOM     24  C   UNL     1     -18.962  13.082  -8.316  0.00  0.00    +0.000 A 
ATOM     25  C   UNL     1     -18.389  13.862  -7.170  0.00  0.00    +0.000 A 
ATOM     26  C   UNL     1     -16.928  13.759  -6.849  0.00  0.00    +0.000 A 
ATOM     27  C   UNL     1     -16.039  12.876  -7.674  0.00  0.00    +0.000 A 
ENDBRANCH  17  18
ENDBRANCH  16  17
ENDBRANCH   1  16
TORSDOF 6
ENDMDL
MODEL 6
REMARK VINA RESULT:      -6.1      3.364      8.293
REMARK  Name = 
REMARK  6 active torsions:
REMARK  status: ('A' for Active; 'I' for Inactive)
REMARK    1  A    between atoms: C_5  and  C_6
REMARK    2  A    between atoms: C_6  and  C_7
REMARK    3  A    between atoms: C_6  and  O_13
REMARK    4  A    between atoms: C_7  and  N_8
REMARK    5  A    between atoms: O_13  and  C_14
REMARK    6  A    between atoms: C_14  and  C_15
REMARK                            x       y       z     vdW  Elec       q    Type
REMARK                         _______ _______ _______ _____ _____    ______ ____
ROOT
ATOM      1  C   UNL     1     -11.678  15.071  -7.998  0.00  0.00    +0.000 C 
ENDROOT
BRANCH   1   6
ATOM      2 CL   UNL     1     -16.016  11.206  -9.498  0.00  0.00    +0.000 Cl
ATOM      3  C   UNL     1     -14.932  12.172  -9.123  0.00  0.00    +0.000 A 
ATOM      4  C   UNL     1     -13.547  11.997  -9.674  0.00  0.00    +0.000 A 
ATOM      5  C   UNL     1     -12.463  12.963  -9.299  0.00  0.00    +0.000 A 
ATOM      6  C   UNL     1     -12.762  14.105  -8.372  0.00  0.00    +0.000 A 
ATOM      7  C   UNL     1     -14.146  14.280  -7.822  0.00  0.00    +0.000 A 
ATOM      8 CL   UNL     1     -14.446  15.422  -6.896  0.00  0.00    +0.000 Cl
ATOM      9  C   UNL     1     -15.231  13.314  -8.197  0.00  0.00    +0.000 A 
ENDBRANCH   1   6
BRANCH   1  10
ATOM     10  C   UNL     1     -11.292  16.170  -8.942  0.00  0.00    +0.000 C 
BRANCH  10  11
ATOM     11  N   UNL     1      -9.959  16.135  -9.630  0.00  0.00    +0.000 N 
ATOM     12  C   UNL     1      -9.023  17.295  -9.797  0.00  0.00    +0.000 A 
ATOM     13  C   UNL     1      -7.814  16.811 -10.542  0.00  0.00    +0.000 A 
ATOM     14  N   UNL     1      -8.004  15.352 -10.835  0.00  0.00    +0.000 NA
ATOM     15  C   UNL     1      -9.330  14.934 -10.271  0.00  0.00    +0.000 A 
ENDBRANCH  10  11
ENDBRANCH   1  10
BRANCH   1  16
ATOM     16  O   UNL     1     -10.978  14.937  -6.677  0.00  0.00    +0.000 OA
BRANCH  16  17
ATOM     17  C   UNL     1     -10.497  16.160  -5.955  0.00  0.00    +0.000 C 
BRANCH  17  18
ATOM     18  C   UNL     1      -9.143  16.168  -5.313  0.00  0.00    +0.000 A 
ATOM     19  C   UNL     1      -8.809  16.730  -3.963  0.00  0.00    +0.000 A 
ATOM     20  S   UNL     1      -7.343  16.525  -3.723  0.00  0.00    +0.000 S 
ATOM     21  C   UNL     1      -6.769  15.835  -4.926  0.00  0.00    +0.000 A 
ATOM     22  C   UNL     1      -5.378  15.380  -5.253  0.00  0.00    +0.000 A 
ATOM     23 CL   UNL     1      -4.266  15.600  -4.271  0.00  0.00    +0.000 Cl
ATOM     24  C   UNL     1      -5.099  14.704  -6.563  0.00  0.00    +0.000 A 
ATOM     25  C   UNL     1      -6.211  14.484  -7.545  0.00  0.00    +0.000 A 
ATOM     26  C   UNL     1      -7.602  14.939  -7.218  0.00  0.00    +0.000 A 
ATOM     27  C   UNL     1      -7.881  15.615  -5.908  0.00  0.00    +0.000 A 
ENDBRANCH  17  18
ENDBRANCH  16  17
ENDBRANCH   1  16
TORSDOF 6
ENDMDL
MODEL 7
REMARK VINA RESULT:      -6.1      1.991      2.763
REMARK  Name = 
REMARK  6 active torsions:
REMARK  status: ('A' for Active; 'I' for Inactive)
REMARK    1  A    between atoms: C_5  and  C_6
REMARK    2  A    between atoms: C_6  and  C_7
REMARK    3  A    between atoms: C_6  and  O_13
REMARK    4  A    between atoms: C_7  and  N_8
REMARK    5  A    between atoms: O_13  and  C_14
REMARK    6  A    between atoms: C_14  and  C_15
REMARK                            x       y       z     vdW  Elec       q    Type
REMARK                         _______ _______ _______ _____ _____    ______ ____
ROOT
ATOM      1  C   UNL     1     -11.015  15.443  -7.731  0.00  0.00    +0.000 C 
ENDROOT
BRANCH   1   6
ATOM      2 CL   UNL     1      -5.185  14.822  -6.454  0.00  0.00    +0.000 Cl
ATOM      3  C   UNL     1      -6.643  14.978  -6.774  0.00  0.00    +0.000 A 
ATOM      4  C   UNL     1      -7.617  15.320  -5.685  0.00  0.00    +0.000 A 
ATOM      5  C   UNL     1      -9.074  15.475  -6.004  0.00  0.00    +0.000 A 
ATOM      6  C   UNL     1      -9.558  15.288  -7.412  0.00  0.00    +0.000 A 
ATOM      7  C   UNL     1      -8.584  14.946  -8.500  0.00  0.00    +0.000 A 
ATOM      8 CL   UNL     1      -9.068  14.759  -9.908  0.00  0.00    +0.000 Cl
ATOM      9  C   UNL     1      -7.127  14.791  -8.181  0.00  0.00    +0.000 A 
ENDBRANCH   1   6
BRANCH   1  10
ATOM     10  C   UNL     1     -11.607  16.812  -7.890  0.00  0.00    +0.000 C 
BRANCH  10  11
ATOM     11  N   UNL     1     -10.750  17.951  -8.356  0.00  0.00    +0.000 N 
ATOM     12  C   UNL     1     -10.352  18.231  -9.776  0.00  0.00    +0.000 A 
ATOM     13  C   UNL     1      -9.497  19.463  -9.782  0.00  0.00    +0.000 A 
ATOM     14  N   UNL     1      -9.366  19.944  -8.368  0.00  0.00    +0.000 NA
ATOM     15  C   UNL     1     -10.141  19.009  -7.486  0.00  0.00    +0.000 A 
ENDBRANCH  10  11
ENDBRANCH   1  10
BRANCH   1  16
ATOM     16  O   UNL     1     -11.881  14.228  -7.890  0.00  0.00    +0.000 OA
BRANCH  16  17
ATOM     17  C   UNL     1     -12.767  13.785  -6.763  0.00  0.00    +0.000 C 
BRANCH  17  18
ATOM     18  C   UNL     1     -14.252  13.720  -6.958  0.00  0.00    +0.000 A 
ATOM     19  C   UNL     1     -15.277  14.504  -6.193  0.00  0.00    +0.000 A 
ATOM     20  S   UNL     1     -16.633  14.128  -6.714  0.00  0.00    +0.000 S 
ATOM     21  C   UNL     1     -16.445  13.112  -7.802  0.00  0.00    +0.000 A 
ATOM     22  C   UNL     1     -17.424  12.384  -8.674  0.00  0.00    +0.000 A 
ATOM     23 CL   UNL     1     -18.895  12.636  -8.524  0.00  0.00    +0.000 Cl
ATOM     24  C   UNL     1     -16.932  11.404  -9.698  0.00  0.00    +0.000 A 
ATOM     25  C   UNL     1     -15.461  11.152  -9.848  0.00  0.00    +0.000 A 
ATOM     26  C   UNL     1     -14.482  11.880  -8.976  0.00  0.00    +0.000 A 
ATOM     27  C   UNL     1     -14.974  12.860  -7.953  0.00  0.00    +0.000 A 
ENDBRANCH  17  18
ENDBRANCH  16  17
ENDBRANCH   1  16
TORSDOF 6
ENDMDL
MODEL 8
REMARK VINA RESULT:      -5.9      2.981      4.482
REMARK  Name = 
REMARK  6 active torsions:
REMARK  status: ('A' for Active; 'I' for Inactive)
REMARK    1  A    between atoms: C_5  and  C_6
REMARK    2  A    between atoms: C_6  and  C_7
REMARK    3  A    between atoms: C_6  and  O_13
REMARK    4  A    between atoms: C_7  and  N_8
REMARK    5  A    between atoms: O_13  and  C_14
REMARK    6  A    between atoms: C_14  and  C_15
REMARK                            x       y       z     vdW  Elec       q    Type
REMARK                         _______ _______ _______ _____ _____    ______ ____
ROOT
ATOM      1  C   UNL     1     -10.286  15.567  -8.594  0.00  0.00    +0.000 C 
ENDROOT
BRANCH   1   6
ATOM      2 CL   UNL     1      -5.508  14.891  -5.028  0.00  0.00    +0.000 Cl
ATOM      3  C   UNL     1      -6.703  15.060  -5.919  0.00  0.00    +0.000 A 
ATOM      4  C   UNL     1      -6.589  14.774  -7.388  0.00  0.00    +0.000 A 
ATOM      5  C   UNL     1      -7.784  14.944  -8.279  0.00  0.00    +0.000 A 
ATOM      6  C   UNL     1      -9.092  15.398  -7.702  0.00  0.00    +0.000 A 
ATOM      7  C   UNL     1      -9.205  15.684  -6.234  0.00  0.00    +0.000 A 
ATOM      8 CL   UNL     1     -10.513  16.138  -5.658  0.00  0.00    +0.000 Cl
ATOM      9  C   UNL     1      -8.010  15.514  -5.343  0.00  0.00    +0.000 A 
ENDBRANCH   1   6
BRANCH   1  10
ATOM     10  C   UNL     1     -10.602  16.911  -9.179  0.00  0.00    +0.000 C 
BRANCH  10  11
ATOM     11  N   UNL     1     -10.216  17.224 -10.594  0.00  0.00    +0.000 N 
ATOM     12  C   UNL     1      -8.972  16.757 -11.292  0.00  0.00    +0.000 A 
ATOM     13  C   UNL     1      -8.993  17.302 -12.689  0.00  0.00    +0.000 A 
ATOM     14  N   UNL     1     -10.248  18.106 -12.855  0.00  0.00    +0.000 NA
ATOM     15  C   UNL     1     -11.004  18.058 -11.560  0.00  0.00    +0.000 A 
ENDBRANCH  10  11
ENDBRANCH   1  10
BRANCH   1  16
ATOM     16  O   UNL     1     -11.165  14.391  -8.902  0.00  0.00    +0.000 OA
BRANCH  16  17
ATOM     17  C   UNL     1     -12.405  14.150  -8.094  0.00  0.00    +0.000 C 
BRANCH  17  18
ATOM     18  C   UNL     1     -13.516  13.314  -8.658  0.00  0.00    +0.000 A 
ATOM     19  C   UNL     1     -13.366  12.202  -9.653  0.00  0.00    +0.000 A 
ATOM     20  S   UNL     1     -14.729  11.644  -9.936  0.00  0.00    +0.000 S 
ATOM     21  C   UNL     1     -15.723  12.412  -9.115  0.00  0.00    +0.000 A 
ATOM     22  C   UNL     1     -17.213  12.305  -8.984  0.00  0.00    +0.000 A 
ATOM     23 CL   UNL     1     -17.963  11.273  -9.774  0.00  0.00    +0.000 Cl
ATOM     24  C   UNL     1     -17.954  13.229  -8.064  0.00  0.00    +0.000 A 
ATOM     25  C   UNL     1     -17.204  14.261  -7.274  0.00  0.00    +0.000 A 
ATOM     26  C   UNL     1     -15.714  14.368  -7.405  0.00  0.00    +0.000 A 
ATOM     27  C   UNL     1     -14.973  13.444  -8.325  0.00  0.00    +0.000 A 
ENDBRANCH  17  18
ENDBRANCH  16  17
ENDBRANCH   1  16
TORSDOF 6
ENDMDL
MODEL 9
REMARK VINA RESULT:      -5.9      2.817      4.291
REMARK  Name = 
REMARK  6 active torsions:
REMARK  status: ('A' for Active; 'I' for Inactive)
REMARK    1  A    between atoms: C_5  and  C_6
REMARK    2  A    between atoms: C_6  and  C_7
REMARK    3  A    between atoms: C_6  and  O_13
REMARK    4  A    between atoms: C_7  and  N_8
REMARK    5  A    between atoms: O_13  and  C_14
REMARK    6  A    between atoms: C_14  and  C_15
REMARK                            x       y       z     vdW  Elec       q    Type
REMARK                         _______ _______ _______ _____ _____    ______ ____
ROOT
ATOM      1  C   UNL     1      -9.548  15.930  -7.986  0.00  0.00    +0.000 C 
ENDROOT
BRANCH   1   6
ATOM      2 CL   UNL     1      -4.360  14.825  -5.181  0.00  0.00    +0.000 Cl
ATOM      3  C   UNL     1      -5.657  15.102  -5.882  0.00  0.00    +0.000 A 
ATOM      4  C   UNL     1      -5.937  14.475  -7.216  0.00  0.00    +0.000 A 
ATOM      5  C   UNL     1      -7.234  14.751  -7.917  0.00  0.00    +0.000 A 
ATOM      6  C   UNL     1      -8.251  15.655  -7.285  0.00  0.00    +0.000 A 
ATOM      7  C   UNL     1      -7.971  16.281  -5.951  0.00  0.00    +0.000 A 
ATOM      8 CL   UNL     1      -8.988  17.184  -5.318  0.00  0.00    +0.000 Cl
ATOM      9  C   UNL     1      -6.674  16.004  -5.250  0.00  0.00    +0.000 A 
ENDBRANCH   1   6
BRANCH   1  10
ATOM     10  C   UNL     1      -9.700  17.164  -8.825  0.00  0.00    +0.000 C 
BRANCH  10  11
ATOM     11  N   UNL     1      -9.322  17.136 -10.276  0.00  0.00    +0.000 N 
ATOM     12  C   UNL     1      -9.269  18.321 -11.196  0.00  0.00    +0.000 A 
ATOM     13  C   UNL     1      -8.845  17.836 -12.551  0.00  0.00    +0.000 A 
ATOM     14  N   UNL     1      -8.638  16.353 -12.469  0.00  0.00    +0.000 NA
ATOM     15  C   UNL     1      -8.933  15.921 -11.063  0.00  0.00    +0.000 A 
ENDBRANCH  10  11
ENDBRANCH   1  10
BRANCH   1  16
ATOM     16  O   UNL     1     -10.693  14.971  -7.849  0.00  0.00    +0.000 OA
BRANCH  16  17
ATOM     17  C   UNL     1     -11.484  14.924  -6.576  0.00  0.00    +0.000 C 
BRANCH  17  18
ATOM     18  C   UNL     1     -12.976  14.787  -6.625  0.00  0.00    +0.000 A 
ATOM     19  C   UNL     1     -13.968  15.689  -5.951  0.00  0.00    +0.000 A 
ATOM     20  S   UNL     1     -15.345  15.183  -6.266  0.00  0.00    +0.000 S 
ATOM     21  C   UNL     1     -15.204  13.969  -7.135  0.00  0.00    +0.000 A 
ATOM     22  C   UNL     1     -16.220  13.054  -7.754  0.00  0.00    +0.000 A 
ATOM     23 CL   UNL     1     -17.683  13.299  -7.532  0.00  0.00    +0.000 Cl
ATOM     24  C   UNL     1     -15.772  11.895  -8.594  0.00  0.00    +0.000 A 
ATOM     25  C   UNL     1     -14.309  11.650  -8.815  0.00  0.00    +0.000 A 
ATOM     26  C   UNL     1     -13.293  12.565  -8.197  0.00  0.00    +0.000 A 
ATOM     27  C   UNL     1     -13.741  13.724  -7.357  0.00  0.00    +0.000 A 
ENDBRANCH  17  18
ENDBRANCH  16  17
ENDBRANCH   1  16
TORSDOF 6
ENDMDL
