MODEL 1
REMARK VINA RESULT:      -5.9      0.000      0.000
REMARK  Name = 
REMARK  11 active torsions:
REMARK  status: ('A' for Active; 'I' for Inactive)
REMARK    1  A    between atoms: C_2  and  C_3
REMARK    2  A    between atoms: C_3  and  C_4
REMARK    3  A    between atoms: C_4  and  N_5
REMARK    4  A    between atoms: N_5  and  C_6
REMARK    5  A    between atoms: N_5  and  C_10
REMARK    6  A    between atoms: C_6  and  C_7
REMARK    7  A    between atoms: C_7  and  C_8
REMARK    8  A    between atoms: C_10  and  C_11
REMARK    9  A    between atoms: C_11  and  C_12
REMARK   10  A    between atoms: C_12  and  C_14
REMARK   11  A    between atoms: C_26  and  C_27
REMARK                            x       y       z     vdW  Elec       q    Type
REMARK                         _______ _______ _______ _____ _____    ______ ____
ROOT
ATOM      1  C   UNL     1     -11.932  15.554  -7.603  0.00  0.00    +0.000 A 
ATOM      2  C   UNL     1     -12.552  16.040  -6.327  0.00  0.00    +0.000 A 
ATOM      3  C   UNL     1     -11.680  16.445  -5.175  0.00  0.00    +0.000 A 
ATOM      4  C   UNL     1     -12.301  16.931  -3.899  0.00  0.00    +0.000 A 
ATOM      5 CL   UNL     1     -13.793  17.013  -3.774  0.00  0.00    +0.000 Cl
ATOM      6  C   UNL     1     -11.429  17.336  -2.748  0.00  0.00    +0.000 A 
ATOM      7  C   UNL     1      -9.936  17.254  -2.872  0.00  0.00    +0.000 A 
ATOM      8 CL   UNL     1      -9.064  17.659  -1.721  0.00  0.00    +0.000 Cl
ATOM      9  C   UNL     1      -9.316  16.768  -4.149  0.00  0.00    +0.000 A 
ATOM     10  C   UNL     1     -10.188  16.363  -5.300  0.00  0.00    +0.000 A 
ATOM     11  C   UNL     1      -9.567  15.877  -6.576  0.00  0.00    +0.000 A 
ATOM     12  C   UNL     1      -8.075  15.795  -6.701  0.00  0.00    +0.000 A 
ATOM     13  C   UNL     1      -7.454  15.309  -7.977  0.00  0.00    +0.000 A 
ATOM     14  C   UNL     1      -8.326  14.904  -9.128  0.00  0.00    +0.000 A 
ATOM     15  C   UNL     1      -9.819  14.986  -9.004  0.00  0.00    +0.000 A 
ATOM     16  C   UNL     1     -10.439  15.472  -7.727  0.00  0.00    +0.000 A 
ENDROOT
BRANCH  13  17
ATOM     17  C   UNL     1      -5.962  15.227  -8.102  0.00  0.00    +0.000 C 
ATOM     18  F   UNL     1      -4.469  15.145  -8.226  0.00  0.00    +0.000 F 
ATOM     19  F   UNL     1      -5.945  16.566  -8.777  0.00  0.00    +0.000 F 
ATOM     20  F   UNL     1      -5.979  13.888  -7.427  0.00  0.00    +0.000 F 
ENDBRANCH  13  17
BRANCH   1  21
ATOM     21  C   UNL     1     -12.804  15.149  -8.754  0.00  0.00    +0.000 C 
ATOM     22  O   UNL     1     -13.477  16.197  -9.589  0.00  0.00    +0.000 OA
BRANCH  21  23
ATOM     23  C   UNL     1     -13.003  13.696  -9.070  0.00  0.00    +0.000 C 
BRANCH  23  24
ATOM     24  C   UNL     1     -13.324  12.727  -7.971  0.00  0.00    +0.000 C 
BRANCH  24  25
ATOM     25  N   UNL     1     -14.752  12.376  -7.675  0.00  0.00    +0.000 NA
BRANCH  25  26
ATOM     26  C   UNL     1     -15.545  11.566  -8.658  0.00  0.00    +0.000 C 
BRANCH  26  27
ATOM     27  C   UNL     1     -16.620  12.219  -9.474  0.00  0.00    +0.000 C 
BRANCH  27  29
ATOM     28  C   UNL     1     -19.007  13.044  -8.862  0.00  0.00    +0.000 C 
ATOM     29  C   UNL     1     -18.063  11.925  -9.187  0.00  0.00    +0.000 C 
ENDBRANCH  27  29
ENDBRANCH  26  27
ENDBRANCH  25  26
BRANCH  25  30
ATOM     30  C   UNL     1     -15.388  12.835  -6.397  0.00  0.00    +0.000 C 
BRANCH  30  31
ATOM     31  C   UNL     1     -15.600  14.299  -6.148  0.00  0.00    +0.000 C 
BRANCH  31  32
ATOM     32  C   UNL     1     -16.199  15.162  -7.219  0.00  0.00    +0.000 C 
ATOM     33  C   UNL     1     -16.144  16.656  -7.096  0.00  0.00    +0.000 C 
ENDBRANCH  31  32
ENDBRANCH  30  31
ENDBRANCH  25  30
ENDBRANCH  24  25
ENDBRANCH  23  24
ENDBRANCH  21  23
ENDBRANCH   1  21
TORSDOF 11
ENDMDL
MODEL 2
REMARK VINA RESULT:      -5.9      0.533      2.229
REMARK  Name = 
REMARK  11 active torsions:
REMARK  status: ('A' for Active; 'I' for Inactive)
REMARK    1  A    between atoms: C_2  and  C_3
REMARK    2  A    between atoms: C_3  and  C_4
REMARK    3  A    between atoms: C_4  and  N_5
REMARK    4  A    between atoms: N_5  and  C_6
REMARK    5  A    between atoms: N_5  and  C_10
REMARK    6  A    between atoms: C_6  and  C_7
REMARK    7  A    between atoms: C_7  and  C_8
REMARK    8  A    between atoms: C_10  and  C_11
REMARK    9  A    between atoms: C_11  and  C_12
REMARK   10  A    between atoms: C_12  and  C_14
REMARK   11  A    between atoms: C_26  and  C_27
REMARK                            x       y       z     vdW  Elec       q    Type
REMARK                         _______ _______ _______ _____ _____    ______ ____
ROOT
ATOM      1  C   UNL     1     -11.923  15.789  -7.655  0.00  0.00    +0.000 A 
ATOM      2  C   UNL     1     -12.548  16.233  -6.366  0.00  0.00    +0.000 A 
ATOM      3  C   UNL     1     -11.684  16.520  -5.173  0.00  0.00    +0.000 A 
ATOM      4  C   UNL     1     -12.309  16.964  -3.884  0.00  0.00    +0.000 A 
ATOM      5 CL   UNL     1     -13.797  17.121  -3.787  0.00  0.00    +0.000 Cl
ATOM      6  C   UNL     1     -11.445  17.251  -2.692  0.00  0.00    +0.000 A 
ATOM      7  C   UNL     1      -9.956  17.094  -2.789  0.00  0.00    +0.000 A 
ATOM      8 CL   UNL     1      -9.092  17.381  -1.597  0.00  0.00    +0.000 Cl
ATOM      9  C   UNL     1      -9.331  16.650  -4.078  0.00  0.00    +0.000 A 
ATOM     10  C   UNL     1     -10.195  16.363  -5.270  0.00  0.00    +0.000 A 
ATOM     11  C   UNL     1      -9.571  15.919  -6.560  0.00  0.00    +0.000 A 
ATOM     12  C   UNL     1      -8.082  15.762  -6.657  0.00  0.00    +0.000 A 
ATOM     13  C   UNL     1      -7.457  15.318  -7.946  0.00  0.00    +0.000 A 
ATOM     14  C   UNL     1      -8.321  15.031  -9.139  0.00  0.00    +0.000 A 
ATOM     15  C   UNL     1      -9.810  15.188  -9.042  0.00  0.00    +0.000 A 
ATOM     16  C   UNL     1     -10.434  15.632  -7.752  0.00  0.00    +0.000 A 
ENDROOT
BRANCH  13  17
ATOM     17  C   UNL     1      -5.969  15.161  -8.044  0.00  0.00    +0.000 C 
ATOM     18  F   UNL     1      -4.480  15.004  -8.141  0.00  0.00    +0.000 F 
ATOM     19  F   UNL     1      -6.070  13.806  -7.408  0.00  0.00    +0.000 F 
ATOM     20  F   UNL     1      -5.867  16.516  -8.679  0.00  0.00    +0.000 F 
ENDBRANCH  13  17
BRANCH   1  21
ATOM     21  C   UNL     1     -12.787  15.502  -8.847  0.00  0.00    +0.000 C 
ATOM     22  O   UNL     1     -13.180  16.615  -9.774  0.00  0.00    +0.000 OA
BRANCH  21  23
ATOM     23  C   UNL     1     -13.258  14.103  -9.113  0.00  0.00    +0.000 C 
BRANCH  23  24
ATOM     24  C   UNL     1     -13.213  13.077  -8.020  0.00  0.00    +0.000 C 
BRANCH  24  25
ATOM     25  N   UNL     1     -14.478  12.416  -7.559  0.00  0.00    +0.000 NA
BRANCH  25  26
ATOM     26  C   UNL     1     -15.161  12.892  -6.311  0.00  0.00    +0.000 C 
BRANCH  26  27
ATOM     27  C   UNL     1     -16.383  13.757  -6.409  0.00  0.00    +0.000 C 
BRANCH  27  29
ATOM     28  C   UNL     1     -16.128  16.041  -7.620  0.00  0.00    +0.000 C 
ATOM     29  C   UNL     1     -16.251  15.250  -6.352  0.00  0.00    +0.000 C 
ENDBRANCH  27  29
ENDBRANCH  26  27
ENDBRANCH  25  26
BRANCH  25  30
ATOM     30  C   UNL     1     -15.060  11.279  -8.346  0.00  0.00    +0.000 C 
BRANCH  30  31
ATOM     31  C   UNL     1     -15.940  11.559  -9.529  0.00  0.00    +0.000 C 
BRANCH  31  32
ATOM     32  C   UNL     1     -17.364  11.982  -9.321  0.00  0.00    +0.000 C 
ATOM     33  C   UNL     1     -18.469  11.285 -10.058  0.00  0.00    +0.000 C 
ENDBRANCH  31  32
ENDBRANCH  30  31
ENDBRANCH  25  30
ENDBRANCH  24  25
ENDBRANCH  23  24
ENDBRANCH  21  23
ENDBRANCH   1  21
TORSDOF 11
ENDMDL
MODEL 3
REMARK VINA RESULT:      -5.8      5.618      8.383
REMARK  Name = 
REMARK  11 active torsions:
REMARK  status: ('A' for Active; 'I' for Inactive)
REMARK    1  A    between atoms: C_2  and  C_3
REMARK    2  A    between atoms: C_3  and  C_4
REMARK    3  A    between atoms: C_4  and  N_5
REMARK    4  A    between atoms: N_5  and  C_6
REMARK    5  A    between atoms: N_5  and  C_10
REMARK    6  A    between atoms: C_6  and  C_7
REMARK    7  A    between atoms: C_7  and  C_8
REMARK    8  A    between atoms: C_10  and  C_11
REMARK    9  A    between atoms: C_11  and  C_12
REMARK   10  A    between atoms: C_12  and  C_14
REMARK   11  A    between atoms: C_26  and  C_27
REMARK                            x       y       z     vdW  Elec       q    Type
REMARK                         _______ _______ _______ _____ _____    ______ ____
ROOT
ATOM      1  C   UNL     1     -19.268  11.958  -9.733  0.00  0.00    +0.000 A 
ATOM      2  C   UNL     1     -20.496  12.619  -9.180  0.00  0.00    +0.000 A 
ATOM      3  C   UNL     1     -20.395  13.493  -7.965  0.00  0.00    +0.000 A 
ATOM      4  C   UNL     1     -21.623  14.153  -7.412  0.00  0.00    +0.000 A 
ATOM      5 CL   UNL     1     -22.952  13.939  -8.074  0.00  0.00    +0.000 Cl
ATOM      6  C   UNL     1     -21.522  15.028  -6.198  0.00  0.00    +0.000 A 
ATOM      7  C   UNL     1     -20.193  15.242  -5.536  0.00  0.00    +0.000 A 
ATOM      8 CL   UNL     1     -20.092  16.117  -4.322  0.00  0.00    +0.000 Cl
ATOM      9  C   UNL     1     -18.965  14.582  -6.090  0.00  0.00    +0.000 A 
ATOM     10  C   UNL     1     -19.066  13.708  -7.304  0.00  0.00    +0.000 A 
ATOM     11  C   UNL     1     -17.838  13.047  -7.857  0.00  0.00    +0.000 A 
ATOM     12  C   UNL     1     -16.509  13.262  -7.196  0.00  0.00    +0.000 A 
ATOM     13  C   UNL     1     -15.281  12.602  -7.749  0.00  0.00    +0.000 A 
ATOM     14  C   UNL     1     -15.382  11.727  -8.964  0.00  0.00    +0.000 A 
ATOM     15  C   UNL     1     -16.711  11.513  -9.625  0.00  0.00    +0.000 A 
ATOM     16  C   UNL     1     -17.939  12.173  -9.072  0.00  0.00    +0.000 A 
ENDROOT
BRANCH  13  17
ATOM     17  C   UNL     1     -13.952  12.816  -7.088  0.00  0.00    +0.000 C 
ATOM     18  F   UNL     1     -12.622  13.031  -6.427  0.00  0.00    +0.000 F 
ATOM     19  F   UNL     1     -14.636  13.474  -5.926  0.00  0.00    +0.000 F 
ATOM     20  F   UNL     1     -13.268  12.158  -8.249  0.00  0.00    +0.000 F 
ENDBRANCH  13  17
BRANCH   1  21
ATOM     21  C   UNL     1     -19.369  11.084 -10.948  0.00  0.00    +0.000 C 
ATOM     22  O   UNL     1     -19.252   9.595 -10.811  0.00  0.00    +0.000 OA
BRANCH  21  23
ATOM     23  C   UNL     1     -19.587  11.699 -12.298  0.00  0.00    +0.000 C 
BRANCH  23  24
ATOM     24  C   UNL     1     -18.720  12.835 -12.754  0.00  0.00    +0.000 C 
BRANCH  24  25
ATOM     25  N   UNL     1     -19.165  14.251 -12.540  0.00  0.00    +0.000 NA
BRANCH  25  26
ATOM     26  C   UNL     1     -18.162  15.307 -12.183  0.00  0.00    +0.000 C 
BRANCH  26  27
ATOM     27  C   UNL     1     -17.619  15.385 -10.787  0.00  0.00    +0.000 C 
BRANCH  27  29
ATOM     28  C   UNL     1     -15.412  15.901  -9.517  0.00  0.00    +0.000 C 
ATOM     29  C   UNL     1     -16.170  15.093 -10.528  0.00  0.00    +0.000 C 
ENDBRANCH  27  29
ENDBRANCH  26  27
ENDBRANCH  25  26
BRANCH  25  30
ATOM     30  C   UNL     1     -20.615  14.611 -12.683  0.00  0.00    +0.000 C 
BRANCH  30  31
ATOM     31  C   UNL     1     -21.426  14.949 -11.468  0.00  0.00    +0.000 C 
BRANCH  31  32
ATOM     32  C   UNL     1     -21.516  16.371 -10.997  0.00  0.00    +0.000 C 
ATOM     33  C   UNL     1     -20.846  16.781  -9.720  0.00  0.00    +0.000 C 
ENDBRANCH  31  32
ENDBRANCH  30  31
ENDBRANCH  25  30
ENDBRANCH  24  25
ENDBRANCH  23  24
ENDBRANCH  21  23
ENDBRANCH   1  21
TORSDOF 11
ENDMDL
MODEL 4
REMARK VINA RESULT:      -5.7      6.152      9.039
REMARK  Name = 
REMARK  11 active torsions:
REMARK  status: ('A' for Active; 'I' for Inactive)
REMARK    1  A    between atoms: C_2  and  C_3
REMARK    2  A    between atoms: C_3  and  C_4
REMARK    3  A    between atoms: C_4  and  N_5
REMARK    4  A    between atoms: N_5  and  C_6
REMARK    5  A    between atoms: N_5  and  C_10
REMARK    6  A    between atoms: C_6  and  C_7
REMARK    7  A    between atoms: C_7  and  C_8
REMARK    8  A    between atoms: C_10  and  C_11
REMARK    9  A    between atoms: C_11  and  C_12
REMARK   10  A    between atoms: C_12  and  C_14
REMARK   11  A    between atoms: C_26  and  C_27
REMARK                            x       y       z     vdW  Elec       q    Type
REMARK                         _______ _______ _______ _____ _____    ______ ____
ROOT
ATOM      1  C   UNL     1     -18.147  14.113  -6.877  0.00  0.00    +0.000 A 
ATOM      2  C   UNL     1     -16.707  14.402  -6.575  0.00  0.00    +0.000 A 
ATOM      3  C   UNL     1     -15.626  13.777  -7.406  0.00  0.00    +0.000 A 
ATOM      4  C   UNL     1     -14.185  14.065  -7.104  0.00  0.00    +0.000 A 
ATOM      5 CL   UNL     1     -13.825  14.980  -5.971  0.00  0.00    +0.000 Cl
ATOM      6  C   UNL     1     -13.105  13.440  -7.935  0.00  0.00    +0.000 A 
ATOM      7  C   UNL     1     -13.465  12.525  -9.068  0.00  0.00    +0.000 A 
ATOM      8 CL   UNL     1     -12.384  11.899  -9.899  0.00  0.00    +0.000 Cl
ATOM      9  C   UNL     1     -14.905  12.236  -9.370  0.00  0.00    +0.000 A 
ATOM     10  C   UNL     1     -15.986  12.862  -8.539  0.00  0.00    +0.000 A 
ATOM     11  C   UNL     1     -17.426  12.573  -8.841  0.00  0.00    +0.000 A 
ATOM     12  C   UNL     1     -17.786  11.658  -9.974  0.00  0.00    +0.000 A 
ATOM     13  C   UNL     1     -19.227  11.370 -10.276  0.00  0.00    +0.000 A 
ATOM     14  C   UNL     1     -20.308  11.995  -9.445  0.00  0.00    +0.000 A 
ATOM     15  C   UNL     1     -19.948  12.910  -8.312  0.00  0.00    +0.000 A 
ATOM     16  C   UNL     1     -18.507  13.199  -8.010  0.00  0.00    +0.000 A 
ENDROOT
BRANCH  13  17
ATOM     17  C   UNL     1     -19.587  10.455 -11.409  0.00  0.00    +0.000 C 
ATOM     18  F   UNL     1     -19.947   9.540 -12.542  0.00  0.00    +0.000 F 
ATOM     19  F   UNL     1     -18.898   9.320 -10.712  0.00  0.00    +0.000 F 
ATOM     20  F   UNL     1     -20.276  11.590 -12.107  0.00  0.00    +0.000 F 
ENDBRANCH  13  17
BRANCH   1  21
ATOM     21  C   UNL     1     -19.228  14.739  -6.046  0.00  0.00    +0.000 C 
ATOM     22  O   UNL     1     -19.876  13.955  -4.944  0.00  0.00    +0.000 OA
BRANCH  21  23
ATOM     23  C   UNL     1     -19.660  16.150  -6.317  0.00  0.00    +0.000 C 
BRANCH  23  24
ATOM     24  C   UNL     1     -20.289  16.502  -7.632  0.00  0.00    +0.000 C 
BRANCH  24  25
ATOM     25  N   UNL     1     -19.430  16.931  -8.784  0.00  0.00    +0.000 NA
BRANCH  25  26
ATOM     26  C   UNL     1     -18.190  17.738  -8.534  0.00  0.00    +0.000 C 
BRANCH  26  27
ATOM     27  C   UNL     1     -16.842  17.086  -8.614  0.00  0.00    +0.000 C 
BRANCH  27  29
ATOM     28  C   UNL     1     -15.161  16.013 -10.280  0.00  0.00    +0.000 C 
ATOM     29  C   UNL     1     -16.048  17.157  -9.884  0.00  0.00    +0.000 C 
ENDBRANCH  27  29
ENDBRANCH  26  27
ENDBRANCH  25  26
BRANCH  25  30
ATOM     30  C   UNL     1     -19.810  16.554 -10.185  0.00  0.00    +0.000 C 
BRANCH  30  31
ATOM     31  C   UNL     1     -19.260  15.300 -10.799  0.00  0.00    +0.000 C 
BRANCH  31  32
ATOM     32  C   UNL     1     -18.481  15.371 -12.078  0.00  0.00    +0.000 C 
ATOM     33  C   UNL     1     -17.591  14.232 -12.479  0.00  0.00    +0.000 C 
ENDBRANCH  31  32
ENDBRANCH  30  31
ENDBRANCH  25  30
ENDBRANCH  24  25
ENDBRANCH  23  24
ENDBRANCH  21  23
ENDBRANCH   1  21
TORSDOF 11
ENDMDL
MODEL 5
REMARK VINA RESULT:      -5.7      6.455      9.454
REMARK  Name = 
REMARK  11 active torsions:
REMARK  status: ('A' for Active; 'I' for Inactive)
REMARK    1  A    between atoms: C_2  and  C_3
REMARK    2  A    between atoms: C_3  and  C_4
REMARK    3  A    between atoms: C_4  and  N_5
REMARK    4  A    between atoms: N_5  and  C_6
REMARK    5  A    between atoms: N_5  and  C_10
REMARK    6  A    between atoms: C_6  and  C_7
REMARK    7  A    between atoms: C_7  and  C_8
REMARK    8  A    between atoms: C_10  and  C_11
REMARK    9  A    between atoms: C_11  and  C_12
REMARK   10  A    between atoms: C_12  and  C_14
REMARK   11  A    between atoms: C_26  and  C_27
REMARK                            x       y       z     vdW  Elec       q    Type
REMARK                         _______ _______ _______ _____ _____    ______ ____
ROOT
ATOM      1  C   UNL     1     -19.805  13.830  -7.461  0.00  0.00    +0.000 A 
ATOM      2  C   UNL     1     -20.935  13.250  -8.260  0.00  0.00    +0.000 A 
ATOM      3  C   UNL     1     -20.656  12.222  -9.316  0.00  0.00    +0.000 A 
ATOM      4  C   UNL     1     -21.786  11.642 -10.114  0.00  0.00    +0.000 A 
ATOM      5 CL   UNL     1     -23.194  12.091  -9.857  0.00  0.00    +0.000 Cl
ATOM      6  C   UNL     1     -21.508  10.614 -11.170  0.00  0.00    +0.000 A 
ATOM      7  C   UNL     1     -20.100  10.165 -11.427  0.00  0.00    +0.000 A 
ATOM      8 CL   UNL     1     -19.821   9.136 -12.483  0.00  0.00    +0.000 Cl
ATOM      9  C   UNL     1     -18.970  10.745 -10.629  0.00  0.00    +0.000 A 
ATOM     10  C   UNL     1     -19.248  11.773  -9.573  0.00  0.00    +0.000 A 
ATOM     11  C   UNL     1     -18.119  12.353  -8.774  0.00  0.00    +0.000 A 
ATOM     12  C   UNL     1     -16.711  11.904  -9.031  0.00  0.00    +0.000 A 
ATOM     13  C   UNL     1     -15.581  12.484  -8.233  0.00  0.00    +0.000 A 
ATOM     14  C   UNL     1     -15.859  13.513  -7.177  0.00  0.00    +0.000 A 
ATOM     15  C   UNL     1     -17.267  13.961  -6.920  0.00  0.00    +0.000 A 
ATOM     16  C   UNL     1     -18.397  13.382  -7.719  0.00  0.00    +0.000 A 
ENDROOT
BRANCH  13  17
ATOM     17  C   UNL     1     -14.173  12.035  -8.490  0.00  0.00    +0.000 C 
ATOM     18  F   UNL     1     -12.765  11.586  -8.747  0.00  0.00    +0.000 F 
ATOM     19  F   UNL     1     -14.644  11.234  -9.668  0.00  0.00    +0.000 F 
ATOM     20  F   UNL     1     -13.703  12.836  -7.312  0.00  0.00    +0.000 F 
ENDBRANCH  13  17
BRANCH   1  21
ATOM     21  C   UNL     1     -20.083  14.859  -6.406  0.00  0.00    +0.000 C 
ATOM     22  O   UNL     1     -20.553  14.431  -5.047  0.00  0.00    +0.000 OA
BRANCH  21  23
ATOM     23  C   UNL     1     -19.892  16.315  -6.709  0.00  0.00    +0.000 C 
BRANCH  23  24
ATOM     24  C   UNL     1     -20.171  16.838  -8.087  0.00  0.00    +0.000 C 
BRANCH  24  25
ATOM     25  N   UNL     1     -19.103  16.782  -9.140  0.00  0.00    +0.000 NA
BRANCH  25  26
ATOM     26  C   UNL     1     -17.664  16.964  -8.759  0.00  0.00    +0.000 C 
BRANCH  26  27
ATOM     27  C   UNL     1     -16.602  16.960  -9.818  0.00  0.00    +0.000 C 
BRANCH  27  29
ATOM     28  C   UNL     1     -14.334  15.698  -9.695  0.00  0.00    +0.000 C 
ATOM     29  C   UNL     1     -15.789  15.723 -10.060  0.00  0.00    +0.000 C 
ENDBRANCH  27  29
ENDBRANCH  26  27
ENDBRANCH  25  26
BRANCH  25  30
ATOM     30  C   UNL     1     -19.476  16.544 -10.573  0.00  0.00    +0.000 C 
BRANCH  30  31
ATOM     31  C   UNL     1     -19.553  15.144 -11.106  0.00  0.00    +0.000 C 
BRANCH  31  32
ATOM     32  C   UNL     1     -18.816  14.777 -12.359  0.00  0.00    +0.000 C 
ATOM     33  C   UNL     1     -17.744  13.728 -12.319  0.00  0.00    +0.000 C 
ENDBRANCH  31  32
ENDBRANCH  30  31
ENDBRANCH  25  30
ENDBRANCH  24  25
ENDBRANCH  23  24
ENDBRANCH  21  23
ENDBRANCH   1  21
TORSDOF 11
ENDMDL
MODEL 6
REMARK VINA RESULT:      -5.6      6.204      9.079
REMARK  Name = 
REMARK  11 active torsions:
REMARK  status: ('A' for Active; 'I' for Inactive)
REMARK    1  A    between atoms: C_2  and  C_3
REMARK    2  A    between atoms: C_3  and  C_4
REMARK    3  A    between atoms: C_4  and  N_5
REMARK    4  A    between atoms: N_5  and  C_6
REMARK    5  A    between atoms: N_5  and  C_10
REMARK    6  A    between atoms: C_6  and  C_7
REMARK    7  A    between atoms: C_7  and  C_8
REMARK    8  A    between atoms: C_10  and  C_11
REMARK    9  A    between atoms: C_11  and  C_12
REMARK   10  A    between atoms: C_12  and  C_14
REMARK   11  A    between atoms: C_26  and  C_27
REMARK                            x       y       z     vdW  Elec       q    Type
REMARK                         _______ _______ _______ _____ _____    ______ ____
ROOT
ATOM      1  C   UNL     1     -19.566  13.862  -7.218  0.00  0.00    +0.000 A 
ATOM      2  C   UNL     1     -20.744  13.344  -7.989  0.00  0.00    +0.000 A 
ATOM      3  C   UNL     1     -20.537  12.370  -9.111  0.00  0.00    +0.000 A 
ATOM      4  C   UNL     1     -21.714  11.852  -9.882  0.00  0.00    +0.000 A 
ATOM      5 CL   UNL     1     -23.100  12.309  -9.532  0.00  0.00    +0.000 Cl
ATOM      6  C   UNL     1     -21.507  10.878 -11.004  0.00  0.00    +0.000 A 
ATOM      7  C   UNL     1     -20.122  10.422 -11.354  0.00  0.00    +0.000 A 
ATOM      8 CL   UNL     1     -19.914   9.448 -12.476  0.00  0.00    +0.000 Cl
ATOM      9  C   UNL     1     -18.944  10.940 -10.583  0.00  0.00    +0.000 A 
ATOM     10  C   UNL     1     -19.151  11.914  -9.461  0.00  0.00    +0.000 A 
ATOM     11  C   UNL     1     -17.974  12.432  -8.690  0.00  0.00    +0.000 A 
ATOM     12  C   UNL     1     -16.588  11.975  -9.041  0.00  0.00    +0.000 A 
ATOM     13  C   UNL     1     -15.411  12.493  -8.269  0.00  0.00    +0.000 A 
ATOM     14  C   UNL     1     -15.618  13.467  -7.148  0.00  0.00    +0.000 A 
ATOM     15  C   UNL     1     -17.003  13.923  -6.797  0.00  0.00    +0.000 A 
ATOM     16  C   UNL     1     -18.181  13.406  -7.568  0.00  0.00    +0.000 A 
ENDROOT
BRANCH  13  17
ATOM     17  C   UNL     1     -14.025  12.037  -8.620  0.00  0.00    +0.000 C 
ATOM     18  F   UNL     1     -12.640  11.580  -8.970  0.00  0.00    +0.000 F 
ATOM     19  F   UNL     1     -13.493  12.705  -7.387  0.00  0.00    +0.000 F 
ATOM     20  F   UNL     1     -14.557  11.368  -9.853  0.00  0.00    +0.000 F 
ENDBRANCH  13  17
BRANCH   1  21
ATOM     21  C   UNL     1     -19.774  14.836  -6.096  0.00  0.00    +0.000 C 
ATOM     22  O   UNL     1     -19.989  14.336  -4.699  0.00  0.00    +0.000 OA
BRANCH  21  23
ATOM     23  C   UNL     1     -19.767  16.310  -6.372  0.00  0.00    +0.000 C 
BRANCH  23  24
ATOM     24  C   UNL     1     -19.462  16.813  -7.752  0.00  0.00    +0.000 C 
BRANCH  24  25
ATOM     25  N   UNL     1     -18.109  17.383  -8.061  0.00  0.00    +0.000 NA
BRANCH  25  26
ATOM     26  C   UNL     1     -17.543  17.262  -9.445  0.00  0.00    +0.000 C 
BRANCH  26  27
ATOM     27  C   UNL     1     -17.137  15.918  -9.975  0.00  0.00    +0.000 C 
BRANCH  27  29
ATOM     28  C   UNL     1     -17.432  14.211 -11.911  0.00  0.00    +0.000 C 
ATOM     29  C   UNL     1     -18.023  15.197 -10.947  0.00  0.00    +0.000 C 
ENDBRANCH  27  29
ENDBRANCH  26  27
ENDBRANCH  25  26
BRANCH  25  30
ATOM     30  C   UNL     1     -17.322  18.073  -6.987  0.00  0.00    +0.000 C 
BRANCH  30  31
ATOM     31  C   UNL     1     -15.918  17.639  -6.690  0.00  0.00    +0.000 C 
BRANCH  31  32
ATOM     32  C   UNL     1     -15.615  16.891  -5.426  0.00  0.00    +0.000 C 
ATOM     33  C   UNL     1     -16.660  16.769  -4.358  0.00  0.00    +0.000 C 
ENDBRANCH  31  32
ENDBRANCH  30  31
ENDBRANCH  25  30
ENDBRANCH  24  25
ENDBRANCH  23  24
ENDBRANCH  21  23
ENDBRANCH   1  21
TORSDOF 11
ENDMDL
MODEL 7
REMARK VINA RESULT:      -5.6      5.414      8.035
REMARK  Name = 
REMARK  11 active torsions:
REMARK  status: ('A' for Active; 'I' for Inactive)
REMARK    1  A    between atoms: C_2  and  C_3
REMARK    2  A    between atoms: C_3  and  C_4
REMARK    3  A    between atoms: C_4  and  N_5
REMARK    4  A    between atoms: N_5  and  C_6
REMARK    5  A    between atoms: N_5  and  C_10
REMARK    6  A    between atoms: C_6  and  C_7
REMARK    7  A    between atoms: C_7  and  C_8
REMARK    8  A    between atoms: C_10  and  C_11
REMARK    9  A    between atoms: C_11  and  C_12
REMARK   10  A    between atoms: C_12  and  C_14
REMARK   11  A    between atoms: C_26  and  C_27
REMARK                            x       y       z     vdW  Elec       q    Type
REMARK                         _______ _______ _______ _____ _____    ______ ____
ROOT
ATOM      1  C   UNL     1     -19.106  12.181  -9.556  0.00  0.00    +0.000 A 
ATOM      2  C   UNL     1     -20.338  12.803  -8.970  0.00  0.00    +0.000 A 
ATOM      3  C   UNL     1     -20.240  13.631  -7.722  0.00  0.00    +0.000 A 
ATOM      4  C   UNL     1     -21.473  14.253  -7.136  0.00  0.00    +0.000 A 
ATOM      5 CL   UNL     1     -22.804  14.047  -7.797  0.00  0.00    +0.000 Cl
ATOM      6  C   UNL     1     -21.375  15.080  -5.889  0.00  0.00    +0.000 A 
ATOM      7  C   UNL     1     -20.044  15.285  -5.228  0.00  0.00    +0.000 A 
ATOM      8 CL   UNL     1     -19.946  16.112  -3.980  0.00  0.00    +0.000 Cl
ATOM      9  C   UNL     1     -18.812  14.663  -5.814  0.00  0.00    +0.000 A 
ATOM     10  C   UNL     1     -18.910  13.836  -7.061  0.00  0.00    +0.000 A 
ATOM     11  C   UNL     1     -17.677  13.214  -7.648  0.00  0.00    +0.000 A 
ATOM     12  C   UNL     1     -16.346  13.419  -6.986  0.00  0.00    +0.000 A 
ATOM     13  C   UNL     1     -15.114  12.797  -7.573  0.00  0.00    +0.000 A 
ATOM     14  C   UNL     1     -15.212  11.970  -8.820  0.00  0.00    +0.000 A 
ATOM     15  C   UNL     1     -16.543  11.764  -9.481  0.00  0.00    +0.000 A 
ATOM     16  C   UNL     1     -17.775  12.386  -8.895  0.00  0.00    +0.000 A 
ENDROOT
BRANCH  13  17
ATOM     17  C   UNL     1     -13.783  13.002  -6.911  0.00  0.00    +0.000 C 
ATOM     18  F   UNL     1     -12.453  13.207  -6.250  0.00  0.00    +0.000 F 
ATOM     19  F   UNL     1     -13.129  12.161  -7.967  0.00  0.00    +0.000 F 
ATOM     20  F   UNL     1     -14.437  13.844  -5.856  0.00  0.00    +0.000 F 
ENDBRANCH  13  17
BRANCH   1  21
ATOM     21  C   UNL     1     -19.204  11.354 -10.803  0.00  0.00    +0.000 C 
ATOM     22  O   UNL     1     -19.201   9.857 -10.713  0.00  0.00    +0.000 OA
BRANCH  21  23
ATOM     23  C   UNL     1     -19.305  12.024 -12.142  0.00  0.00    +0.000 C 
BRANCH  23  24
ATOM     24  C   UNL     1     -18.326  13.097 -12.519  0.00  0.00    +0.000 C 
BRANCH  24  25
ATOM     25  N   UNL     1     -18.573  14.516 -12.102  0.00  0.00    +0.000 NA
BRANCH  25  26
ATOM     26  C   UNL     1     -19.977  15.025 -11.966  0.00  0.00    +0.000 C 
BRANCH  26  27
ATOM     27  C   UNL     1     -20.343  15.917 -10.817  0.00  0.00    +0.000 C 
BRANCH  27  29
ATOM     28  C   UNL     1     -22.151  17.196  -9.458  0.00  0.00    +0.000 C 
ATOM     29  C   UNL     1     -21.786  16.192 -10.511  0.00  0.00    +0.000 C 
ENDBRANCH  27  29
ENDBRANCH  26  27
ENDBRANCH  25  26
BRANCH  25  30
ATOM     30  C   UNL     1     -17.415  15.428 -11.822  0.00  0.00    +0.000 C 
BRANCH  30  31
ATOM     31  C   UNL     1     -16.857  15.527 -10.434  0.00  0.00    +0.000 C 
BRANCH  31  32
ATOM     32  C   UNL     1     -15.380  15.389 -10.207  0.00  0.00    +0.000 C 
ATOM     33  C   UNL     1     -14.726  16.115  -9.069  0.00  0.00    +0.000 C 
ENDBRANCH  31  32
ENDBRANCH  30  31
ENDBRANCH  25  30
ENDBRANCH  24  25
ENDBRANCH  23  24
ENDBRANCH  21  23
ENDBRANCH   1  21
TORSDOF 11
ENDMDL
MODEL 8
REMARK VINA RESULT:      -5.5      6.581      9.370
REMARK  Name = 
REMARK  11 active torsions:
REMARK  status: ('A' for Active; 'I' for Inactive)
REMARK    1  A    between atoms: C_2  and  C_3
REMARK    2  A    between atoms: C_3  and  C_4
REMARK    3  A    between atoms: C_4  and  N_5
REMARK    4  A    between atoms: N_5  and  C_6
REMARK    5  A    between atoms: N_5  and  C_10
REMARK    6  A    between atoms: C_6  and  C_7
REMARK    7  A    between atoms: C_7  and  C_8
REMARK    8  A    between atoms: C_10  and  C_11
REMARK    9  A    between atoms: C_11  and  C_12
REMARK   10  A    between atoms: C_12  and  C_14
REMARK   11  A    between atoms: C_26  and  C_27
REMARK                            x       y       z     vdW  Elec       q    Type
REMARK                         _______ _______ _______ _____ _____    ______ ____
ROOT
ATOM      1  C   UNL     1     -18.508  11.791  -9.903  0.00  0.00    +0.000 A 
ATOM      2  C   UNL     1     -17.011  11.712  -9.947  0.00  0.00    +0.000 A 
ATOM      3  C   UNL     1     -16.192  12.405  -8.899  0.00  0.00    +0.000 A 
ATOM      4  C   UNL     1     -14.695  12.326  -8.942  0.00  0.00    +0.000 A 
ATOM      5 CL   UNL     1     -14.016  11.554 -10.035  0.00  0.00    +0.000 Cl
ATOM      6  C   UNL     1     -13.876  13.019  -7.894  0.00  0.00    +0.000 A 
ATOM      7  C   UNL     1     -14.555  13.791  -6.801  0.00  0.00    +0.000 A 
ATOM      8 CL   UNL     1     -13.736  14.484  -5.753  0.00  0.00    +0.000 Cl
ATOM      9  C   UNL     1     -16.052  13.870  -6.758  0.00  0.00    +0.000 A 
ATOM     10  C   UNL     1     -16.871  13.177  -7.806  0.00  0.00    +0.000 A 
ATOM     11  C   UNL     1     -18.368  13.256  -7.763  0.00  0.00    +0.000 A 
ATOM     12  C   UNL     1     -19.047  14.028  -6.670  0.00  0.00    +0.000 A 
ATOM     13  C   UNL     1     -20.544  14.108  -6.626  0.00  0.00    +0.000 A 
ATOM     14  C   UNL     1     -21.362  13.415  -7.675  0.00  0.00    +0.000 A 
ATOM     15  C   UNL     1     -20.684  12.643  -8.767  0.00  0.00    +0.000 A 
ATOM     16  C   UNL     1     -19.187  12.563  -8.811  0.00  0.00    +0.000 A 
ENDROOT
BRANCH  13  17
ATOM     17  C   UNL     1     -21.222  14.880  -5.534  0.00  0.00    +0.000 C 
ATOM     18  F   UNL     1     -21.901  15.652  -4.442  0.00  0.00    +0.000 F 
ATOM     19  F   UNL     1     -20.632  13.953  -4.513  0.00  0.00    +0.000 F 
ATOM     20  F   UNL     1     -21.812  15.806  -6.556  0.00  0.00    +0.000 F 
ENDBRANCH  13  17
BRANCH   1  21
ATOM     21  C   UNL     1     -19.327  11.098 -10.952  0.00  0.00    +0.000 C 
ATOM     22  O   UNL     1     -19.650   9.640 -10.809  0.00  0.00    +0.000 OA
BRANCH  21  23
ATOM     23  C   UNL     1     -19.822  11.863 -12.144  0.00  0.00    +0.000 C 
BRANCH  23  24
ATOM     24  C   UNL     1     -18.921  12.845 -12.832  0.00  0.00    +0.000 C 
BRANCH  24  25
ATOM     25  N   UNL     1     -18.990  14.301 -12.478  0.00  0.00    +0.000 NA
BRANCH  25  26
ATOM     26  C   UNL     1     -20.305  14.924 -12.116  0.00  0.00    +0.000 C 
BRANCH  26  27
ATOM     27  C   UNL     1     -20.555  15.387 -10.711  0.00  0.00    +0.000 C 
BRANCH  27  29
ATOM     28  C   UNL     1     -19.926  17.169  -8.928  0.00  0.00    +0.000 C 
ATOM     29  C   UNL     1     -20.302  16.818 -10.337  0.00  0.00    +0.000 C 
ENDBRANCH  27  29
ENDBRANCH  26  27
ENDBRANCH  25  26
BRANCH  25  30
ATOM     30  C   UNL     1     -17.742  15.134 -12.486  0.00  0.00    +0.000 C 
BRANCH  30  31
ATOM     31  C   UNL     1     -16.729  14.977 -11.391  0.00  0.00    +0.000 C 
BRANCH  31  32
ATOM     32  C   UNL     1     -16.764  15.888 -10.200  0.00  0.00    +0.000 C 
ATOM     33  C   UNL     1     -15.490  16.260  -9.502  0.00  0.00    +0.000 C 
ENDBRANCH  31  32
ENDBRANCH  30  31
ENDBRANCH  25  30
ENDBRANCH  24  25
ENDBRANCH  23  24
ENDBRANCH  21  23
ENDBRANCH   1  21
TORSDOF 11
ENDMDL
MODEL 9
REMARK VINA RESULT:      -5.5      6.188      8.873
REMARK  Name = 
REMARK  11 active torsions:
REMARK  status: ('A' for Active; 'I' for Inactive)
REMARK    1  A    between atoms: C_2  and  C_3
REMARK    2  A    between atoms: C_3  and  C_4
REMARK    3  A    between atoms: C_4  and  N_5
REMARK    4  A    between atoms: N_5  and  C_6
REMARK    5  A    between atoms: N_5  and  C_10
REMARK    6  A    between atoms: C_6  and  C_7
REMARK    7  A    between atoms: C_7  and  C_8
REMARK    8  A    between atoms: C_10  and  C_11
REMARK    9  A    between atoms: C_11  and  C_12
REMARK   10  A    between atoms: C_12  and  C_14
REMARK   11  A    between atoms: C_26  and  C_27
REMARK                            x       y       z     vdW  Elec       q    Type
REMARK                         _______ _______ _______ _____ _____    ______ ____
ROOT
ATOM      1  C   UNL     1     -20.130  12.004  -9.526  0.00  0.00    +0.000 A 
ATOM      2  C   UNL     1     -21.007  12.894  -8.696  0.00  0.00    +0.000 A 
ATOM      3  C   UNL     1     -20.402  13.764  -7.635  0.00  0.00    +0.000 A 
ATOM      4  C   UNL     1     -21.279  14.654  -6.805  0.00  0.00    +0.000 A 
ATOM      5 CL   UNL     1     -22.760  14.674  -7.036  0.00  0.00    +0.000 Cl
ATOM      6  C   UNL     1     -20.673  15.524  -5.743  0.00  0.00    +0.000 A 
ATOM      7  C   UNL     1     -19.192  15.505  -5.512  0.00  0.00    +0.000 A 
ATOM      8 CL   UNL     1     -18.586  16.375  -4.451  0.00  0.00    +0.000 Cl
ATOM      9  C   UNL     1     -18.315  14.615  -6.342  0.00  0.00    +0.000 A 
ATOM     10  C   UNL     1     -18.920  13.744  -7.403  0.00  0.00    +0.000 A 
ATOM     11  C   UNL     1     -18.043  12.854  -8.233  0.00  0.00    +0.000 A 
ATOM     12  C   UNL     1     -16.561  12.835  -8.002  0.00  0.00    +0.000 A 
ATOM     13  C   UNL     1     -15.684  11.945  -8.832  0.00  0.00    +0.000 A 
ATOM     14  C   UNL     1     -16.289  11.074  -9.894  0.00  0.00    +0.000 A 
ATOM     15  C   UNL     1     -17.771  11.094 -10.125  0.00  0.00    +0.000 A 
ATOM     16  C   UNL     1     -18.648  11.984  -9.295  0.00  0.00    +0.000 A 
ENDROOT
BRANCH  13  17
ATOM     17  C   UNL     1     -14.202  11.925  -8.601  0.00  0.00    +0.000 C 
ATOM     18  F   UNL     1     -12.720  11.906  -8.370  0.00  0.00    +0.000 F 
ATOM     19  F   UNL     1     -13.982  11.581 -10.044  0.00  0.00    +0.000 F 
ATOM     20  F   UNL     1     -14.423  12.269  -7.158  0.00  0.00    +0.000 F 
ENDBRANCH  13  17
BRANCH   1  21
ATOM     21  C   UNL     1     -20.735  11.133 -10.587  0.00  0.00    +0.000 C 
ATOM     22  O   UNL     1     -21.343   9.813 -10.218  0.00  0.00    +0.000 OA
BRANCH  21  23
ATOM     23  C   UNL     1     -20.732  11.583 -12.018  0.00  0.00    +0.000 C 
BRANCH  23  24
ATOM     24  C   UNL     1     -21.702  12.631 -12.477  0.00  0.00    +0.000 C 
BRANCH  24  25
ATOM     25  N   UNL     1     -21.551  14.049 -12.010  0.00  0.00    +0.000 NA
BRANCH  25  26
ATOM     26  C   UNL     1     -20.226  14.741 -12.131  0.00  0.00    +0.000 C 
BRANCH  26  27
ATOM     27  C   UNL     1     -19.699  15.556 -10.987  0.00  0.00    +0.000 C 
BRANCH  27  29
ATOM     28  C   UNL     1     -17.298  14.683 -11.462  0.00  0.00    +0.000 C 
ATOM     29  C   UNL     1     -18.249  15.473 -10.612  0.00  0.00    +0.000 C 
ENDBRANCH  27  29
ENDBRANCH  26  27
ENDBRANCH  25  26
BRANCH  25  30
ATOM     30  C   UNL     1     -22.725  14.774 -11.422  0.00  0.00    +0.000 C 
BRANCH  30  31
ATOM     31  C   UNL     1     -24.051  14.082 -11.303  0.00  0.00    +0.000 C 
BRANCH  31  32
ATOM     32  C   UNL     1     -24.444  13.433 -10.009  0.00  0.00    +0.000 C 
ATOM     33  C   UNL     1     -24.362  11.943  -9.861  0.00  0.00    +0.000 C 
ENDBRANCH  31  32
ENDBRANCH  30  31
ENDBRANCH  25  30
ENDBRANCH  24  25
ENDBRANCH  23  24
ENDBRANCH  21  23
ENDBRANCH   1  21
TORSDOF 11
ENDMDL
