MODEL 1
REMARK VINA RESULT:      -5.9      0.000      0.000
REMARK  Name = 
REMARK  2 active torsions:
REMARK  status: ('A' for Active; 'I' for Inactive)
REMARK    1  A    between atoms: C_6  and  C_7
REMARK    2  A    between atoms: C_7  and  C_8
REMARK                            x       y       z     vdW  Elec       q    Type
REMARK                         _______ _______ _______ _____ _____    ______ ____
ROOT
ATOM      1  C   UNL     1     -18.408  12.459  -9.369  0.00  0.00    +0.000 C 
ATOM      2  C   UNL     1     -16.935  12.320  -9.124  0.00  0.00    +0.000 A 
ATOM      3  C   UNL     1     -16.069  11.625 -10.133  0.00  0.00    +0.000 A 
ATOM      4  C   UNL     1     -14.596  11.486  -9.888  0.00  0.00    +0.000 A 
ATOM      5  C   UNL     1     -13.988  12.043  -8.635  0.00  0.00    +0.000 A 
ATOM      6  C   UNL     1     -14.854  12.738  -7.626  0.00  0.00    +0.000 A 
ATOM      7  C   UNL     1     -16.327  12.876  -7.871  0.00  0.00    +0.000 A 
ATOM      8  S   UNL     1     -17.193  13.571  -6.862  0.00  0.00    +0.000 S 
ATOM      9  C   UNL     1     -18.666  13.710  -7.107  0.00  0.00    +0.000 A 
ATOM     10  C   UNL     1     -19.532  14.405  -6.098  0.00  0.00    +0.000 A 
ATOM     11  C   UNL     1     -21.005  14.544  -6.343  0.00  0.00    +0.000 A 
ATOM     12  C   UNL     1     -21.613  13.987  -7.596  0.00  0.00    +0.000 A 
ATOM     13  C   UNL     1     -20.747  13.292  -8.605  0.00  0.00    +0.000 A 
ATOM     14  C   UNL     1     -19.274  13.154  -8.360  0.00  0.00    +0.000 A 
ENDROOT
BRANCH   1  15
ATOM     15  C   UNL     1     -19.016  11.902 -10.622  0.00  0.00    +0.000 C 
BRANCH  15  21
ATOM     16  C   UNL     1     -23.079   8.698 -10.149  0.00  0.00    +0.000 C 
ATOM     17  N   UNL     1     -21.614   8.912 -10.392  0.00  0.00    +0.000 NA
ATOM     18  C   UNL     1     -20.717   7.736 -10.641  0.00  0.00    +0.000 C 
ATOM     19  C   UNL     1     -19.252   7.950 -10.885  0.00  0.00    +0.000 C 
ATOM     20  C   UNL     1     -18.685   9.338 -10.878  0.00  0.00    +0.000 C 
ATOM     21  C   UNL     1     -19.583  10.514 -10.629  0.00  0.00    +0.000 C 
ATOM     22  C   UNL     1     -21.048  10.300 -10.385  0.00  0.00    +0.000 C 
ENDBRANCH  15  21
ENDBRANCH   1  15
TORSDOF 2
ENDMDL
MODEL 2
REMARK VINA RESULT:      -5.9      0.095      4.146
REMARK  Name = 
REMARK  2 active torsions:
REMARK  status: ('A' for Active; 'I' for Inactive)
REMARK    1  A    between atoms: C_6  and  C_7
REMARK    2  A    between atoms: C_7  and  C_8
REMARK                            x       y       z     vdW  Elec       q    Type
REMARK                         _______ _______ _______ _____ _____    ______ ____
ROOT
ATOM      1  C   UNL     1     -18.479  12.500  -9.337  0.00  0.00    +0.000 C 
ATOM      2  C   UNL     1     -19.322  13.209  -8.320  0.00  0.00    +0.000 A 
ATOM      3  C   UNL     1     -20.795  13.374  -8.549  0.00  0.00    +0.000 A 
ATOM      4  C   UNL     1     -21.638  14.083  -7.532  0.00  0.00    +0.000 A 
ATOM      5  C   UNL     1     -21.008  14.629  -6.284  0.00  0.00    +0.000 A 
ATOM      6  C   UNL     1     -19.534  14.464  -6.055  0.00  0.00    +0.000 A 
ATOM      7  C   UNL     1     -18.691  13.755  -7.072  0.00  0.00    +0.000 A 
ATOM      8  S   UNL     1     -17.218  13.590  -6.843  0.00  0.00    +0.000 S 
ATOM      9  C   UNL     1     -16.375  12.881  -7.860  0.00  0.00    +0.000 A 
ATOM     10  C   UNL     1     -14.902  12.716  -7.631  0.00  0.00    +0.000 A 
ATOM     11  C   UNL     1     -14.059  12.007  -8.649  0.00  0.00    +0.000 A 
ATOM     12  C   UNL     1     -14.689  11.461  -9.896  0.00  0.00    +0.000 A 
ATOM     13  C   UNL     1     -16.162  11.626 -10.125  0.00  0.00    +0.000 A 
ATOM     14  C   UNL     1     -17.005  12.335  -9.108  0.00  0.00    +0.000 A 
ENDROOT
BRANCH   1  15
ATOM     15  C   UNL     1     -19.109  11.954 -10.584  0.00  0.00    +0.000 C 
BRANCH  15  21
ATOM     16  C   UNL     1     -23.158   8.741 -10.058  0.00  0.00    +0.000 C 
ATOM     17  N   UNL     1     -21.699   8.958 -10.330  0.00  0.00    +0.000 NA
ATOM     18  C   UNL     1     -20.806   7.787 -10.610  0.00  0.00    +0.000 C 
ATOM     19  C   UNL     1     -19.347   8.004 -10.883  0.00  0.00    +0.000 C 
ATOM     20  C   UNL     1     -18.781   9.393 -10.874  0.00  0.00    +0.000 C 
ATOM     21  C   UNL     1     -19.674  10.565 -10.593  0.00  0.00    +0.000 C 
ATOM     22  C   UNL     1     -21.133  10.347 -10.321  0.00  0.00    +0.000 C 
ENDBRANCH  15  21
ENDBRANCH   1  15
TORSDOF 2
ENDMDL
MODEL 3
REMARK VINA RESULT:      -5.8     10.489     13.315
REMARK  Name = 
REMARK  2 active torsions:
REMARK  status: ('A' for Active; 'I' for Inactive)
REMARK    1  A    between atoms: C_6  and  C_7
REMARK    2  A    between atoms: C_7  and  C_8
REMARK                            x       y       z     vdW  Elec       q    Type
REMARK                         _______ _______ _______ _____ _____    ______ ____
ROOT
ATOM      1  C   UNL     1      -7.400  15.203  -6.756  0.00  0.00    +0.000 C 
ATOM      2  C   UNL     1      -8.547  15.774  -5.976  0.00  0.00    +0.000 A 
ATOM      3  C   UNL     1      -9.931  15.749  -6.552  0.00  0.00    +0.000 A 
ATOM      4  C   UNL     1     -11.079  16.320  -5.772  0.00  0.00    +0.000 A 
ATOM      5  C   UNL     1     -10.841  16.915  -4.416  0.00  0.00    +0.000 A 
ATOM      6  C   UNL     1      -9.457  16.940  -3.840  0.00  0.00    +0.000 A 
ATOM      7  C   UNL     1      -8.309  16.369  -4.619  0.00  0.00    +0.000 A 
ATOM      8  S   UNL     1      -6.925  16.394  -4.043  0.00  0.00    +0.000 S 
ATOM      9  C   UNL     1      -5.778  15.823  -4.823  0.00  0.00    +0.000 A 
ATOM     10  C   UNL     1      -4.393  15.848  -4.247  0.00  0.00    +0.000 A 
ATOM     11  C   UNL     1      -3.246  15.277  -5.027  0.00  0.00    +0.000 A 
ATOM     12  C   UNL     1      -3.483  14.682  -6.383  0.00  0.00    +0.000 A 
ATOM     13  C   UNL     1      -4.868  14.657  -6.959  0.00  0.00    +0.000 A 
ATOM     14  C   UNL     1      -6.015  15.228  -6.179  0.00  0.00    +0.000 A 
ENDROOT
BRANCH   1  15
ATOM     15  C   UNL     1      -7.637  14.608  -8.112  0.00  0.00    +0.000 C 
BRANCH  15  21
ATOM     16  C   UNL     1      -7.140  19.238 -10.416  0.00  0.00    +0.000 C 
ATOM     17  N   UNL     1      -7.620  17.817 -10.446  0.00  0.00    +0.000 NA
ATOM     18  C   UNL     1      -8.332  17.291 -11.656  0.00  0.00    +0.000 C 
ATOM     19  C   UNL     1      -8.813  15.870 -11.686  0.00  0.00    +0.000 C 
ATOM     20  C   UNL     1      -8.581  14.976 -10.504  0.00  0.00    +0.000 C 
ATOM     21  C   UNL     1      -7.869  15.502  -9.293  0.00  0.00    +0.000 C 
ATOM     22  C   UNL     1      -7.389  16.923  -9.264  0.00  0.00    +0.000 C 
ENDBRANCH  15  21
ENDBRANCH   1  15
TORSDOF 2
ENDMDL
MODEL 4
REMARK VINA RESULT:      -5.7      2.145      5.018
REMARK  Name = 
REMARK  2 active torsions:
REMARK  status: ('A' for Active; 'I' for Inactive)
REMARK    1  A    between atoms: C_6  and  C_7
REMARK    2  A    between atoms: C_7  and  C_8
REMARK                            x       y       z     vdW  Elec       q    Type
REMARK                         _______ _______ _______ _____ _____    ______ ____
ROOT
ATOM      1  C   UNL     1     -17.845  12.298  -8.990  0.00  0.00    +0.000 C 
ATOM      2  C   UNL     1     -18.830  13.047  -8.142  0.00  0.00    +0.000 A 
ATOM      3  C   UNL     1     -20.298  12.957  -8.440  0.00  0.00    +0.000 A 
ATOM      4  C   UNL     1     -21.283  13.706  -7.593  0.00  0.00    +0.000 A 
ATOM      5  C   UNL     1     -20.800  14.546  -6.447  0.00  0.00    +0.000 A 
ATOM      6  C   UNL     1     -19.333  14.637  -6.149  0.00  0.00    +0.000 A 
ATOM      7  C   UNL     1     -18.348  13.887  -6.997  0.00  0.00    +0.000 A 
ATOM      8  S   UNL     1     -16.881  13.978  -6.699  0.00  0.00    +0.000 S 
ATOM      9  C   UNL     1     -15.896  13.228  -7.546  0.00  0.00    +0.000 A 
ATOM     10  C   UNL     1     -14.429  13.319  -7.249  0.00  0.00    +0.000 A 
ATOM     11  C   UNL     1     -13.444  12.570  -8.096  0.00  0.00    +0.000 A 
ATOM     12  C   UNL     1     -13.926  11.730  -9.241  0.00  0.00    +0.000 A 
ATOM     13  C   UNL     1     -15.393  11.639  -9.539  0.00  0.00    +0.000 A 
ATOM     14  C   UNL     1     -16.378  12.389  -8.692  0.00  0.00    +0.000 A 
ENDROOT
BRANCH   1  15
ATOM     15  C   UNL     1     -18.328  11.458 -10.135  0.00  0.00    +0.000 C 
BRANCH  15  21
ATOM     16  C   UNL     1     -21.180  11.693 -14.472  0.00  0.00    +0.000 C 
ATOM     17  N   UNL     1     -20.055  12.214 -13.627  0.00  0.00    +0.000 NA
ATOM     18  C   UNL     1     -19.232  13.373 -14.105  0.00  0.00    +0.000 C 
ATOM     19  C   UNL     1     -18.108  13.894 -13.260  0.00  0.00    +0.000 C 
ATOM     20  C   UNL     1     -17.807  13.256 -11.937  0.00  0.00    +0.000 C 
ATOM     21  C   UNL     1     -18.629  12.096 -11.458  0.00  0.00    +0.000 C 
ATOM     22  C   UNL     1     -19.754  11.575 -12.304  0.00  0.00    +0.000 C 
ENDBRANCH  15  21
ENDBRANCH   1  15
TORSDOF 2
ENDMDL
MODEL 5
REMARK VINA RESULT:      -5.7     17.494     21.125
REMARK  Name = 
REMARK  2 active torsions:
REMARK  status: ('A' for Active; 'I' for Inactive)
REMARK    1  A    between atoms: C_6  and  C_7
REMARK    2  A    between atoms: C_7  and  C_8
REMARK                            x       y       z     vdW  Elec       q    Type
REMARK                         _______ _______ _______ _____ _____    ______ ____
ROOT
ATOM      1  C   UNL     1      -2.807   9.188   3.207  0.00  0.00    +0.000 C 
ATOM      2  C   UNL     1      -4.244   8.767   3.111  0.00  0.00    +0.000 A 
ATOM      3  C   UNL     1      -4.994   8.949   1.825  0.00  0.00    +0.000 A 
ATOM      4  C   UNL     1      -6.431   8.528   1.729  0.00  0.00    +0.000 A 
ATOM      5  C   UNL     1      -7.117   7.924   2.918  0.00  0.00    +0.000 A 
ATOM      6  C   UNL     1      -6.366   7.742   4.204  0.00  0.00    +0.000 A 
ATOM      7  C   UNL     1      -4.930   8.163   4.300  0.00  0.00    +0.000 A 
ATOM      8  S   UNL     1      -4.179   7.980   5.586  0.00  0.00    +0.000 S 
ATOM      9  C   UNL     1      -2.743   8.402   5.683  0.00  0.00    +0.000 A 
ATOM     10  C   UNL     1      -1.993   8.219   6.969  0.00  0.00    +0.000 A 
ATOM     11  C   UNL     1      -0.556   8.640   7.065  0.00  0.00    +0.000 A 
ATOM     12  C   UNL     1       0.130   9.244   5.875  0.00  0.00    +0.000 A 
ATOM     13  C   UNL     1      -0.621   9.427   4.589  0.00  0.00    +0.000 A 
ATOM     14  C   UNL     1      -2.057   9.005   4.493  0.00  0.00    +0.000 A 
ENDROOT
BRANCH   1  15
ATOM     15  C   UNL     1      -2.121   9.792   2.018  0.00  0.00    +0.000 C 
BRANCH  15  21
ATOM     16  C   UNL     1       1.107   9.314  -2.026  0.00  0.00    +0.000 C 
ATOM     17  N   UNL     1       0.326   8.692  -0.906  0.00  0.00    +0.000 NA
ATOM     18  C   UNL     1       0.378   7.208  -0.689  0.00  0.00    +0.000 C 
ATOM     19  C   UNL     1      -0.403   6.586   0.430  0.00  0.00    +0.000 C 
ATOM     20  C   UNL     1      -1.236   7.447   1.332  0.00  0.00    +0.000 C 
ATOM     21  C   UNL     1      -1.288   8.931   1.115  0.00  0.00    +0.000 C 
ATOM     22  C   UNL     1      -0.507   9.553  -0.004  0.00  0.00    +0.000 C 
ENDBRANCH  15  21
ENDBRANCH   1  15
TORSDOF 2
ENDMDL
MODEL 6
REMARK VINA RESULT:      -5.7      4.662      8.551
REMARK  Name = 
REMARK  2 active torsions:
REMARK  status: ('A' for Active; 'I' for Inactive)
REMARK    1  A    between atoms: C_6  and  C_7
REMARK    2  A    between atoms: C_7  and  C_8
REMARK                            x       y       z     vdW  Elec       q    Type
REMARK                         _______ _______ _______ _____ _____    ______ ____
ROOT
ATOM      1  C   UNL     1     -14.368  13.924  -6.779  0.00  0.00    +0.000 C 
ATOM      2  C   UNL     1     -15.038  14.984  -5.955  0.00  0.00    +0.000 A 
ATOM      3  C   UNL     1     -14.229  15.823  -5.011  0.00  0.00    +0.000 A 
ATOM      4  C   UNL     1     -14.899  16.882  -4.187  0.00  0.00    +0.000 A 
ATOM      5  C   UNL     1     -16.378  17.103  -4.308  0.00  0.00    +0.000 A 
ATOM      6  C   UNL     1     -17.187  16.264  -5.252  0.00  0.00    +0.000 A 
ATOM      7  C   UNL     1     -16.517  15.205  -6.076  0.00  0.00    +0.000 A 
ATOM      8  S   UNL     1     -17.325  14.366  -7.021  0.00  0.00    +0.000 S 
ATOM      9  C   UNL     1     -16.656  13.306  -7.844  0.00  0.00    +0.000 A 
ATOM     10  C   UNL     1     -17.464  12.468  -8.789  0.00  0.00    +0.000 A 
ATOM     11  C   UNL     1     -16.795  11.408  -9.612  0.00  0.00    +0.000 A 
ATOM     12  C   UNL     1     -15.316  11.187  -9.492  0.00  0.00    +0.000 A 
ATOM     13  C   UNL     1     -14.507  12.026  -8.547  0.00  0.00    +0.000 A 
ATOM     14  C   UNL     1     -15.177  13.086  -7.723  0.00  0.00    +0.000 A 
ENDROOT
BRANCH   1  15
ATOM     15  C   UNL     1     -12.889  13.704  -6.658  0.00  0.00    +0.000 C 
BRANCH  15  21
ATOM     16  C   UNL     1      -8.622  16.622  -6.137  0.00  0.00    +0.000 C 
ATOM     17  N   UNL     1      -9.798  16.175  -6.953  0.00  0.00    +0.000 NA
ATOM     18  C   UNL     1     -10.017  16.740  -8.325  0.00  0.00    +0.000 C 
ATOM     19  C   UNL     1     -11.194  16.293  -9.142  0.00  0.00    +0.000 C 
ATOM     20  C   UNL     1     -12.151  15.281  -8.586  0.00  0.00    +0.000 C 
ATOM     21  C   UNL     1     -11.932  14.716  -7.214  0.00  0.00    +0.000 C 
ATOM     22  C   UNL     1     -10.756  15.163  -6.397  0.00  0.00    +0.000 C 
ENDBRANCH  15  21
ENDBRANCH   1  15
TORSDOF 2
ENDMDL
MODEL 7
REMARK VINA RESULT:      -5.6      3.471      6.568
REMARK  Name = 
REMARK  2 active torsions:
REMARK  status: ('A' for Active; 'I' for Inactive)
REMARK    1  A    between atoms: C_6  and  C_7
REMARK    2  A    between atoms: C_7  and  C_8
REMARK                            x       y       z     vdW  Elec       q    Type
REMARK                         _______ _______ _______ _____ _____    ______ ____
ROOT
ATOM      1  C   UNL     1     -17.037  14.787  -6.831  0.00  0.00    +0.000 C 
ATOM      2  C   UNL     1     -15.696  15.096  -6.233  0.00  0.00    +0.000 A 
ATOM      3  C   UNL     1     -15.547  16.247  -5.284  0.00  0.00    +0.000 A 
ATOM      4  C   UNL     1     -14.206  16.557  -4.685  0.00  0.00    +0.000 A 
ATOM      5  C   UNL     1     -13.016  15.714  -5.036  0.00  0.00    +0.000 A 
ATOM      6  C   UNL     1     -13.166  14.563  -5.985  0.00  0.00    +0.000 A 
ATOM      7  C   UNL     1     -14.506  14.253  -6.584  0.00  0.00    +0.000 A 
ATOM      8  S   UNL     1     -14.656  13.102  -7.533  0.00  0.00    +0.000 S 
ATOM      9  C   UNL     1     -15.996  12.793  -8.132  0.00  0.00    +0.000 A 
ATOM     10  C   UNL     1     -16.146  11.641  -9.081  0.00  0.00    +0.000 A 
ATOM     11  C   UNL     1     -17.486  11.332  -9.680  0.00  0.00    +0.000 A 
ATOM     12  C   UNL     1     -18.676  12.174  -9.329  0.00  0.00    +0.000 A 
ATOM     13  C   UNL     1     -18.527  13.326  -8.379  0.00  0.00    +0.000 A 
ATOM     14  C   UNL     1     -17.186  13.635  -7.781  0.00  0.00    +0.000 A 
ENDROOT
BRANCH   1  15
ATOM     15  C   UNL     1     -18.227  15.629  -6.480  0.00  0.00    +0.000 C 
BRANCH  15  21
ATOM     16  C   UNL     1     -19.681  16.825  -1.637  0.00  0.00    +0.000 C 
ATOM     17  N   UNL     1     -19.756  15.918  -2.829  0.00  0.00    +0.000 NA
ATOM     18  C   UNL     1     -20.632  14.701  -2.792  0.00  0.00    +0.000 C 
ATOM     19  C   UNL     1     -20.706  13.793  -3.984  0.00  0.00    +0.000 C 
ATOM     20  C   UNL     1     -19.905  14.103  -5.214  0.00  0.00    +0.000 C 
ATOM     21  C   UNL     1     -19.029  15.320  -5.251  0.00  0.00    +0.000 C 
ATOM     22  C   UNL     1     -18.954  16.227  -4.059  0.00  0.00    +0.000 C 
ENDBRANCH  15  21
ENDBRANCH   1  15
TORSDOF 2
ENDMDL
MODEL 8
REMARK VINA RESULT:      -5.6      4.621      8.078
REMARK  Name = 
REMARK  2 active torsions:
REMARK  status: ('A' for Active; 'I' for Inactive)
REMARK    1  A    between atoms: C_6  and  C_7
REMARK    2  A    between atoms: C_7  and  C_8
REMARK                            x       y       z     vdW  Elec       q    Type
REMARK                         _______ _______ _______ _____ _____    ______ ____
ROOT
ATOM      1  C   UNL     1     -14.505  14.048  -6.693  0.00  0.00    +0.000 C 
ATOM      2  C   UNL     1     -15.248  13.172  -7.658  0.00  0.00    +0.000 A 
ATOM      3  C   UNL     1     -14.509  12.135  -8.452  0.00  0.00    +0.000 A 
ATOM      4  C   UNL     1     -15.252  11.260  -9.416  0.00  0.00    +0.000 A 
ATOM      5  C   UNL     1     -16.733  11.420  -9.588  0.00  0.00    +0.000 A 
ATOM      6  C   UNL     1     -17.472  12.457  -8.794  0.00  0.00    +0.000 A 
ATOM      7  C   UNL     1     -16.729  13.333  -7.829  0.00  0.00    +0.000 A 
ATOM      8  S   UNL     1     -17.468  14.369  -7.036  0.00  0.00    +0.000 S 
ATOM      9  C   UNL     1     -16.725  15.245  -6.071  0.00  0.00    +0.000 A 
ATOM     10  C   UNL     1     -17.464  16.282  -5.277  0.00  0.00    +0.000 A 
ATOM     11  C   UNL     1     -16.721  17.157  -4.312  0.00  0.00    +0.000 A 
ATOM     12  C   UNL     1     -15.240  16.997  -4.141  0.00  0.00    +0.000 A 
ATOM     13  C   UNL     1     -14.501  15.960  -4.934  0.00  0.00    +0.000 A 
ATOM     14  C   UNL     1     -15.244  15.084  -5.899  0.00  0.00    +0.000 A 
ENDROOT
BRANCH   1  15
ATOM     15  C   UNL     1     -13.024  13.887  -6.522  0.00  0.00    +0.000 C 
BRANCH  15  21
ATOM     16  C   UNL     1      -8.532  16.500  -6.543  0.00  0.00    +0.000 C 
ATOM     17  N   UNL     1      -9.837  16.155  -7.196  0.00  0.00    +0.000 NA
ATOM     18  C   UNL     1     -10.202  16.771  -8.515  0.00  0.00    +0.000 C 
ATOM     19  C   UNL     1     -11.507  16.425  -9.168  0.00  0.00    +0.000 C 
ATOM     20  C   UNL     1     -12.448  15.464  -8.504  0.00  0.00    +0.000 C 
ATOM     21  C   UNL     1     -12.083  14.848  -7.186  0.00  0.00    +0.000 C 
ATOM     22  C   UNL     1     -10.778  15.193  -6.532  0.00  0.00    +0.000 C 
ENDBRANCH  15  21
ENDBRANCH   1  15
TORSDOF 2
ENDMDL
MODEL 9
REMARK VINA RESULT:      -5.6      3.325      6.268
REMARK  Name = 
REMARK  2 active torsions:
REMARK  status: ('A' for Active; 'I' for Inactive)
REMARK    1  A    between atoms: C_6  and  C_7
REMARK    2  A    between atoms: C_7  and  C_8
REMARK                            x       y       z     vdW  Elec       q    Type
REMARK                         _______ _______ _______ _____ _____    ______ ____
ROOT
ATOM      1  C   UNL     1     -17.478  13.332  -7.610  0.00  0.00    +0.000 C 
ATOM      2  C   UNL     1     -16.037  12.987  -7.845  0.00  0.00    +0.000 A 
ATOM      3  C   UNL     1     -14.970  13.589  -6.980  0.00  0.00    +0.000 A 
ATOM      4  C   UNL     1     -13.530  13.243  -7.215  0.00  0.00    +0.000 A 
ATOM      5  C   UNL     1     -13.156  12.296  -8.316  0.00  0.00    +0.000 A 
ATOM      6  C   UNL     1     -14.223  11.693  -9.182  0.00  0.00    +0.000 A 
ATOM      7  C   UNL     1     -15.664  12.039  -8.946  0.00  0.00    +0.000 A 
ATOM      8  S   UNL     1     -16.730  11.436  -9.812  0.00  0.00    +0.000 S 
ATOM      9  C   UNL     1     -18.171  11.782  -9.576  0.00  0.00    +0.000 A 
ATOM     10  C   UNL     1     -19.238  11.180 -10.442  0.00  0.00    +0.000 A 
ATOM     11  C   UNL     1     -20.678  11.525 -10.206  0.00  0.00    +0.000 A 
ATOM     12  C   UNL     1     -21.052  12.473  -9.105  0.00  0.00    +0.000 A 
ATOM     13  C   UNL     1     -19.985  13.075  -8.240  0.00  0.00    +0.000 A 
ATOM     14  C   UNL     1     -18.545  12.730  -8.475  0.00  0.00    +0.000 A 
ENDROOT
BRANCH   1  15
ATOM     15  C   UNL     1     -17.851  14.280  -6.509  0.00  0.00    +0.000 C 
BRANCH  15  21
ATOM     16  C   UNL     1     -17.584  19.125  -4.650  0.00  0.00    +0.000 C 
ATOM     17  N   UNL     1     -17.666  18.183  -5.815  0.00  0.00    +0.000 NA
ATOM     18  C   UNL     1     -17.695  18.722  -7.215  0.00  0.00    +0.000 C 
ATOM     19  C   UNL     1     -17.776  17.780  -8.379  0.00  0.00    +0.000 C 
ATOM     20  C   UNL     1     -17.828  16.299  -8.144  0.00  0.00    +0.000 C 
ATOM     21  C   UNL     1     -17.799  15.761  -6.744  0.00  0.00    +0.000 C 
ATOM     22  C   UNL     1     -17.718  16.703  -5.580  0.00  0.00    +0.000 C 
ENDBRANCH  15  21
ENDBRANCH   1  15
TORSDOF 2
ENDMDL
