MODEL 1
REMARK VINA RESULT:      -4.6      0.000      0.000
REMARK  Name = 
REMARK  4 active torsions:
REMARK  status: ('A' for Active; 'I' for Inactive)
REMARK    1  A    between atoms: C_2  and  N_4
REMARK    2  A    between atoms: N_4  and  C_5
REMARK    3  A    between atoms: C_5  and  C_7
REMARK    4  A    between atoms: C_7  and  C_8
REMARK                            x       y       z     vdW  Elec       q    Type
REMARK                         _______ _______ _______ _____ _____    ______ ____
ROOT
ATOM      1  C   UNL     1     -14.360  11.835  -8.263  0.00  0.00    +0.000 C 
ENDROOT
BRANCH   1   2
ATOM      2  C   UNL     1     -15.819  12.031  -8.550  0.00  0.00    +0.000 A 
ATOM      3  C   UNL     1     -16.473  11.268  -9.663  0.00  0.00    +0.000 A 
ATOM      4  C   UNL     1     -17.933  11.463  -9.950  0.00  0.00    +0.000 A 
ATOM      5  C   UNL     1     -18.738  12.421  -9.123  0.00  0.00    +0.000 A 
ATOM      6  I   UNL     1     -20.197  12.617  -9.410  0.00  0.00    +0.000 I 
ATOM      7  C   UNL     1     -18.084  13.184  -8.010  0.00  0.00    +0.000 A 
ATOM      8  C   UNL     1     -16.624  12.989  -7.723  0.00  0.00    +0.000 A 
ENDBRANCH   1   2
BRANCH   1   9
ATOM      9  C   UNL     1     -13.338  12.678  -8.966  0.00  0.00    +0.000 C 
ATOM     10  C   UNL     1     -12.371  12.043  -9.921  0.00  0.00    +0.000 C 
BRANCH   9  11
ATOM     11  N   UNL     1     -13.283  14.156  -8.715  0.00  0.00    +0.000 NA
BRANCH  11  13
ATOM     12  C   UNL     1     -11.196  15.522  -7.988  0.00  0.00    +0.000 C 
ATOM     13  C   UNL     1     -12.399  14.700  -7.632  0.00  0.00    +0.000 C 
ATOM     14  C   UNL     1     -12.718  14.422  -6.193  0.00  0.00    +0.000 C 
ENDBRANCH  11  13
ENDBRANCH   9  11
ENDBRANCH   1   9
TORSDOF 4
ENDMDL
MODEL 2
REMARK VINA RESULT:      -4.5      1.152      1.300
REMARK  Name = 
REMARK  4 active torsions:
REMARK  status: ('A' for Active; 'I' for Inactive)
REMARK    1  A    between atoms: C_2  and  N_4
REMARK    2  A    between atoms: N_4  and  C_5
REMARK    3  A    between atoms: C_5  and  C_7
REMARK    4  A    between atoms: C_7  and  C_8
REMARK                            x       y       z     vdW  Elec       q    Type
REMARK                         _______ _______ _______ _____ _____    ______ ____
ROOT
ATOM      1  C   UNL     1     -14.316  11.839  -8.065  0.00  0.00    +0.000 C 
ENDROOT
BRANCH   1   2
ATOM      2  C   UNL     1     -15.757  12.013  -8.448  0.00  0.00    +0.000 A 
ATOM      3  C   UNL     1     -16.327  11.234  -9.596  0.00  0.00    +0.000 A 
ATOM      4  C   UNL     1     -17.767  11.408  -9.978  0.00  0.00    +0.000 A 
ATOM      5  C   UNL     1     -18.637  12.359  -9.212  0.00  0.00    +0.000 A 
ATOM      6  I   UNL     1     -20.077  12.533  -9.594  0.00  0.00    +0.000 I 
ATOM      7  C   UNL     1     -18.067  13.138  -8.063  0.00  0.00    +0.000 A 
ATOM      8  C   UNL     1     -16.627  12.964  -7.681  0.00  0.00    +0.000 A 
ENDBRANCH   1   2
BRANCH   1   9
ATOM      9  C   UNL     1     -13.257  12.658  -8.741  0.00  0.00    +0.000 C 
ATOM     10  C   UNL     1     -12.530  12.109  -9.933  0.00  0.00    +0.000 C 
BRANCH   9  11
ATOM     11  N   UNL     1     -12.925  14.027  -8.226  0.00  0.00    +0.000 NA
BRANCH  11  13
ATOM     12  C   UNL     1     -14.463  15.440  -9.772  0.00  0.00    +0.000 C 
ATOM     13  C   UNL     1     -13.897  15.155  -8.412  0.00  0.00    +0.000 C 
ATOM     14  C   UNL     1     -14.302  15.997  -7.239  0.00  0.00    +0.000 C 
ENDBRANCH  11  13
ENDBRANCH   9  11
ENDBRANCH   1   9
TORSDOF 4
ENDMDL
MODEL 3
REMARK VINA RESULT:      -4.4      1.636      3.163
REMARK  Name = 
REMARK  4 active torsions:
REMARK  status: ('A' for Active; 'I' for Inactive)
REMARK    1  A    between atoms: C_2  and  N_4
REMARK    2  A    between atoms: N_4  and  C_5
REMARK    3  A    between atoms: C_5  and  C_7
REMARK    4  A    between atoms: C_7  and  C_8
REMARK                            x       y       z     vdW  Elec       q    Type
REMARK                         _______ _______ _______ _____ _____    ______ ____
ROOT
ATOM      1  C   UNL     1     -17.402  13.769  -7.522  0.00  0.00    +0.000 C 
ENDROOT
BRANCH   1   2
ATOM      2  C   UNL     1     -18.248  12.918  -8.422  0.00  0.00    +0.000 A 
ATOM      3  C   UNL     1     -19.740  13.075  -8.418  0.00  0.00    +0.000 A 
ATOM      4  C   UNL     1     -20.586  12.224  -9.318  0.00  0.00    +0.000 A 
ATOM      5  C   UNL     1     -19.941  11.217 -10.222  0.00  0.00    +0.000 A 
ATOM      6  I   UNL     1     -20.787  10.366 -11.122  0.00  0.00    +0.000 I 
ATOM      7  C   UNL     1     -18.449  11.060 -10.226  0.00  0.00    +0.000 A 
ATOM      8  C   UNL     1     -17.603  11.911  -9.327  0.00  0.00    +0.000 A 
ENDBRANCH   1   2
BRANCH   1   9
ATOM      9  C   UNL     1     -15.922  13.540  -7.448  0.00  0.00    +0.000 C 
ATOM     10  C   UNL     1     -15.342  12.742  -6.318  0.00  0.00    +0.000 C 
BRANCH   9  11
ATOM     11  N   UNL     1     -15.021  14.109  -8.504  0.00  0.00    +0.000 NA
BRANCH  11  13
ATOM     12  C   UNL     1     -13.933  12.005  -9.570  0.00  0.00    +0.000 C 
ATOM     13  C   UNL     1     -13.797  13.355  -8.931  0.00  0.00    +0.000 C 
ATOM     14  C   UNL     1     -12.436  13.951  -8.719  0.00  0.00    +0.000 C 
ENDBRANCH  11  13
ENDBRANCH   9  11
ENDBRANCH   1   9
TORSDOF 4
ENDMDL
MODEL 4
REMARK VINA RESULT:      -4.3      4.339      7.562
REMARK  Name = 
REMARK  4 active torsions:
REMARK  status: ('A' for Active; 'I' for Inactive)
REMARK    1  A    between atoms: C_2  and  N_4
REMARK    2  A    between atoms: N_4  and  C_5
REMARK    3  A    between atoms: C_5  and  C_7
REMARK    4  A    between atoms: C_7  and  C_8
REMARK                            x       y       z     vdW  Elec       q    Type
REMARK                         _______ _______ _______ _____ _____    ______ ____
ROOT
ATOM      1  C   UNL     1     -12.243  15.482  -7.725  0.00  0.00    +0.000 C 
ENDROOT
BRANCH   1   2
ATOM      2  C   UNL     1     -10.751  15.338  -7.667  0.00  0.00    +0.000 A 
ATOM      3  C   UNL     1     -10.045  15.370  -6.344  0.00  0.00    +0.000 A 
ATOM      4  C   UNL     1      -8.553  15.227  -6.286  0.00  0.00    +0.000 A 
ATOM      5  C   UNL     1      -7.767  15.052  -7.552  0.00  0.00    +0.000 A 
ATOM      6  I   UNL     1      -6.275  14.908  -7.494  0.00  0.00    +0.000 I 
ATOM      7  C   UNL     1      -8.472  15.020  -8.875  0.00  0.00    +0.000 A 
ATOM      8  C   UNL     1      -9.964  15.163  -8.933  0.00  0.00    +0.000 A 
ENDBRANCH   1   2
BRANCH   1   9
ATOM      9  C   UNL     1     -13.118  14.270  -7.600  0.00  0.00    +0.000 C 
ATOM     10  C   UNL     1     -13.140  13.491  -6.318  0.00  0.00    +0.000 C 
BRANCH   9  11
ATOM     11  N   UNL     1     -13.971  13.838  -8.755  0.00  0.00    +0.000 NA
BRANCH  11  13
ATOM     12  C   UNL     1     -14.858  11.584  -9.695  0.00  0.00    +0.000 C 
ATOM     13  C   UNL     1     -13.717  12.519  -9.423  0.00  0.00    +0.000 C 
ATOM     14  C   UNL     1     -12.322  12.135  -9.819  0.00  0.00    +0.000 C 
ENDBRANCH  11  13
ENDBRANCH   9  11
ENDBRANCH   1   9
TORSDOF 4
ENDMDL
MODEL 5
REMARK VINA RESULT:      -4.3      1.712      2.970
REMARK  Name = 
REMARK  4 active torsions:
REMARK  status: ('A' for Active; 'I' for Inactive)
REMARK    1  A    between atoms: C_2  and  N_4
REMARK    2  A    between atoms: N_4  and  C_5
REMARK    3  A    between atoms: C_5  and  C_7
REMARK    4  A    between atoms: C_7  and  C_8
REMARK                            x       y       z     vdW  Elec       q    Type
REMARK                         _______ _______ _______ _____ _____    ______ ____
ROOT
ATOM      1  C   UNL     1     -15.306  13.409  -6.302  0.00  0.00    +0.000 C 
ENDROOT
BRANCH   1   2
ATOM      2  C   UNL     1     -16.255  12.954  -7.371  0.00  0.00    +0.000 A 
ATOM      3  C   UNL     1     -17.672  13.446  -7.375  0.00  0.00    +0.000 A 
ATOM      4  C   UNL     1     -18.621  12.991  -8.444  0.00  0.00    +0.000 A 
ATOM      5  C   UNL     1     -18.153  12.044  -9.508  0.00  0.00    +0.000 A 
ATOM      6  I   UNL     1     -19.102  11.589 -10.577  0.00  0.00    +0.000 I 
ATOM      7  C   UNL     1     -16.736  11.552  -9.504  0.00  0.00    +0.000 A 
ATOM      8  C   UNL     1     -15.787  12.007  -8.435  0.00  0.00    +0.000 A 
ENDBRANCH   1   2
BRANCH   1   9
ATOM      9  C   UNL     1     -14.850  14.837  -6.263  0.00  0.00    +0.000 C 
ATOM     10  C   UNL     1     -15.633  15.854  -5.486  0.00  0.00    +0.000 C 
BRANCH   9  11
ATOM     11  N   UNL     1     -13.611  15.249  -7.000  0.00  0.00    +0.000 NA
BRANCH  11  13
ATOM     12  C   UNL     1     -12.356  13.822  -8.772  0.00  0.00    +0.000 C 
ATOM     13  C   UNL     1     -13.412  14.829  -8.427  0.00  0.00    +0.000 C 
ATOM     14  C   UNL     1     -14.270  15.417  -9.508  0.00  0.00    +0.000 C 
ENDBRANCH  11  13
ENDBRANCH   9  11
ENDBRANCH   1   9
TORSDOF 4
ENDMDL
MODEL 6
REMARK VINA RESULT:      -4.3      2.162      2.874
REMARK  Name = 
REMARK  4 active torsions:
REMARK  status: ('A' for Active; 'I' for Inactive)
REMARK    1  A    between atoms: C_2  and  N_4
REMARK    2  A    between atoms: N_4  and  C_5
REMARK    3  A    between atoms: C_5  and  C_7
REMARK    4  A    between atoms: C_7  and  C_8
REMARK                            x       y       z     vdW  Elec       q    Type
REMARK                         _______ _______ _______ _____ _____    ______ ____
ROOT
ATOM      1  C   UNL     1     -14.398  13.149  -6.195  0.00  0.00    +0.000 C 
ENDROOT
BRANCH   1   2
ATOM      2  C   UNL     1     -15.461  12.804  -7.196  0.00  0.00    +0.000 A 
ATOM      3  C   UNL     1     -15.180  11.798  -8.272  0.00  0.00    +0.000 A 
ATOM      4  C   UNL     1     -16.242  11.453  -9.273  0.00  0.00    +0.000 A 
ATOM      5  C   UNL     1     -17.587  12.114  -9.197  0.00  0.00    +0.000 A 
ATOM      6  I   UNL     1     -18.649  11.769 -10.198  0.00  0.00    +0.000 I 
ATOM      7  C   UNL     1     -17.868  13.120  -8.121  0.00  0.00    +0.000 A 
ATOM      8  C   UNL     1     -16.805  13.465  -7.120  0.00  0.00    +0.000 A 
ENDBRANCH   1   2
BRANCH   1   9
ATOM      9  C   UNL     1     -13.523  14.347  -6.413  0.00  0.00    +0.000 C 
ATOM     10  C   UNL     1     -12.542  14.362  -7.548  0.00  0.00    +0.000 C 
BRANCH   9  11
ATOM     11  N   UNL     1     -13.629  15.530  -5.497  0.00  0.00    +0.000 NA
BRANCH  11  13
ATOM     12  C   UNL     1     -15.528  16.787  -4.248  0.00  0.00    +0.000 C 
ATOM     13  C   UNL     1     -14.853  16.396  -5.529  0.00  0.00    +0.000 C 
ATOM     14  C   UNL     1     -15.401  16.872  -6.842  0.00  0.00    +0.000 C 
ENDBRANCH  11  13
ENDBRANCH   9  11
ENDBRANCH   1   9
TORSDOF 4
ENDMDL
MODEL 7
REMARK VINA RESULT:      -4.2      1.467      2.024
REMARK  Name = 
REMARK  4 active torsions:
REMARK  status: ('A' for Active; 'I' for Inactive)
REMARK    1  A    between atoms: C_2  and  N_4
REMARK    2  A    between atoms: N_4  and  C_5
REMARK    3  A    between atoms: C_5  and  C_7
REMARK    4  A    between atoms: C_7  and  C_8
REMARK                            x       y       z     vdW  Elec       q    Type
REMARK                         _______ _______ _______ _____ _____    ______ ____
ROOT
ATOM      1  C   UNL     1     -15.045  13.047  -6.958  0.00  0.00    +0.000 C 
ENDROOT
BRANCH   1   2
ATOM      2  C   UNL     1     -16.180  12.654  -7.856  0.00  0.00    +0.000 A 
ATOM      3  C   UNL     1     -17.535  13.268  -7.664  0.00  0.00    +0.000 A 
ATOM      4  C   UNL     1     -18.671  12.875  -8.562  0.00  0.00    +0.000 A 
ATOM      5  C   UNL     1     -18.452  11.868  -9.651  0.00  0.00    +0.000 A 
ATOM      6  I   UNL     1     -19.587  11.475 -10.549  0.00  0.00    +0.000 I 
ATOM      7  C   UNL     1     -17.097  11.254  -9.843  0.00  0.00    +0.000 A 
ATOM      8  C   UNL     1     -15.961  11.647  -8.945  0.00  0.00    +0.000 A 
ENDBRANCH   1   2
BRANCH   1   9
ATOM      9  C   UNL     1     -13.822  13.694  -7.535  0.00  0.00    +0.000 C 
ATOM     10  C   UNL     1     -13.883  14.341  -8.887  0.00  0.00    +0.000 C 
BRANCH   9  11
ATOM     11  N   UNL     1     -12.537  13.696  -6.761  0.00  0.00    +0.000 NA
BRANCH  11  13
ATOM     12  C   UNL     1     -10.570  15.390  -6.653  0.00  0.00    +0.000 C 
ATOM     13  C   UNL     1     -11.962  14.989  -6.264  0.00  0.00    +0.000 C 
ATOM     14  C   UNL     1     -12.779  15.881  -5.376  0.00  0.00    +0.000 C 
ENDBRANCH  11  13
ENDBRANCH   9  11
ENDBRANCH   1   9
TORSDOF 4
ENDMDL
MODEL 8
REMARK VINA RESULT:      -4.1      3.799      7.155
REMARK  Name = 
REMARK  4 active torsions:
REMARK  status: ('A' for Active; 'I' for Inactive)
REMARK    1  A    between atoms: C_2  and  N_4
REMARK    2  A    between atoms: N_4  and  C_5
REMARK    3  A    between atoms: C_5  and  C_7
REMARK    4  A    between atoms: C_7  and  C_8
REMARK                            x       y       z     vdW  Elec       q    Type
REMARK                         _______ _______ _______ _____ _____    ______ ____
ROOT
ATOM      1  C   UNL     1     -19.774  11.566  -9.987  0.00  0.00    +0.000 C 
ENDROOT
BRANCH   1   2
ATOM      2  C   UNL     1     -18.473  11.942  -9.341  0.00  0.00    +0.000 A 
ATOM      3  C   UNL     1     -17.199  11.284  -9.781  0.00  0.00    +0.000 A 
ATOM      4  C   UNL     1     -15.899  11.660  -9.135  0.00  0.00    +0.000 A 
ATOM      5  C   UNL     1     -15.873  12.695  -8.049  0.00  0.00    +0.000 A 
ATOM      6  I   UNL     1     -14.572  13.071  -7.403  0.00  0.00    +0.000 I 
ATOM      7  C   UNL     1     -17.147  13.354  -7.610  0.00  0.00    +0.000 A 
ATOM      8  C   UNL     1     -18.447  12.977  -8.256  0.00  0.00    +0.000 A 
ENDBRANCH   1   2
BRANCH   1   9
ATOM      9  C   UNL     1     -19.779  10.728 -11.231  0.00  0.00    +0.000 C 
ATOM     10  C   UNL     1     -19.800  11.387 -12.579  0.00  0.00    +0.000 C 
BRANCH   9  11
ATOM     11  N   UNL     1     -19.762   9.232 -11.128  0.00  0.00    +0.000 NA
BRANCH  11  13
ATOM     12  C   UNL     1     -20.929   7.079 -10.260  0.00  0.00    +0.000 C 
ATOM     13  C   UNL     1     -21.013   8.492 -10.758  0.00  0.00    +0.000 C 
ATOM     14  C   UNL     1     -22.347   9.164 -10.887  0.00  0.00    +0.000 C 
ENDBRANCH  11  13
ENDBRANCH   9  11
ENDBRANCH   1   9
TORSDOF 4
ENDMDL
MODEL 9
REMARK VINA RESULT:      -4.1      3.180      5.051
REMARK  Name = 
REMARK  4 active torsions:
REMARK  status: ('A' for Active; 'I' for Inactive)
REMARK    1  A    between atoms: C_2  and  N_4
REMARK    2  A    between atoms: N_4  and  C_5
REMARK    3  A    between atoms: C_5  and  C_7
REMARK    4  A    between atoms: C_7  and  C_8
REMARK                            x       y       z     vdW  Elec       q    Type
REMARK                         _______ _______ _______ _____ _____    ______ ____
ROOT
ATOM      1  C   UNL     1     -11.200  16.079  -6.696  0.00  0.00    +0.000 C 
ENDROOT
BRANCH   1   2
ATOM      2  C   UNL     1     -12.163  15.012  -7.123  0.00  0.00    +0.000 A 
ATOM      3  C   UNL     1     -12.310  14.671  -8.577  0.00  0.00    +0.000 A 
ATOM      4  C   UNL     1     -13.274  13.604  -9.004  0.00  0.00    +0.000 A 
ATOM      5  C   UNL     1     -14.091  12.877  -7.977  0.00  0.00    +0.000 A 
ATOM      6  I   UNL     1     -15.055  11.810  -8.404  0.00  0.00    +0.000 I 
ATOM      7  C   UNL     1     -13.944  13.217  -6.524  0.00  0.00    +0.000 A 
ATOM      8  C   UNL     1     -12.980  14.285  -6.097  0.00  0.00    +0.000 A 
ENDBRANCH   1   2
BRANCH   1   9
ATOM      9  C   UNL     1      -9.727  15.887  -6.907  0.00  0.00    +0.000 C 
ATOM     10  C   UNL     1      -8.916  15.132  -5.896  0.00  0.00    +0.000 C 
BRANCH   9  11
ATOM     11  N   UNL     1      -9.065  16.451  -8.130  0.00  0.00    +0.000 NA
BRANCH  11  13
ATOM     12  C   UNL     1      -6.775  15.626  -9.039  0.00  0.00    +0.000 C 
ATOM     13  C   UNL     1      -8.273  15.554  -9.035  0.00  0.00    +0.000 C 
ATOM     14  C   UNL     1      -8.980  14.584  -9.935  0.00  0.00    +0.000 C 
ENDBRANCH  11  13
ENDBRANCH   9  11
ENDBRANCH   1   9
TORSDOF 4
ENDMDL
