MODEL 1
REMARK VINA RESULT:      -5.5      0.000      0.000
REMARK  Name = 
REMARK  1 active torsions:
REMARK  status: ('A' for Active; 'I' for Inactive)
REMARK    1  A    between atoms: C_2  and  C_4
REMARK                            x       y       z     vdW  Elec       q    Type
REMARK                         _______ _______ _______ _____ _____    ______ ____
ROOT
ATOM      1  C   UNL     1     -17.511  12.579  -8.911  0.00  0.00    +0.000 C 
ATOM      2  C   UNL     1     -16.150  11.982  -8.709  0.00  0.00    +0.000 C 
ATOM      3  C   UNL     1     -15.359  12.320  -7.480  0.00  0.00    +0.000 C 
ATOM      4  C   UNL     1     -15.928  13.254  -6.454  0.00  0.00    +0.000 C 
ATOM      5  C   UNL     1     -17.289  13.851  -6.657  0.00  0.00    +0.000 C 
ATOM      6  C   UNL     1     -16.695  11.932  -9.259  0.00  0.00    +0.000 C 
ATOM      7  C   UNL     1     -15.581  11.047  -9.734  0.00  0.00    +0.000 C 
ATOM      8  C   UNL     1     -14.789  11.385  -8.506  0.00  0.00    +0.000 C 
ATOM      9  C   UNL     1     -16.942  11.644  -9.937  0.00  0.00    +0.000 C 
ATOM     10  C   UNL     1     -18.081  13.513  -7.885  0.00  0.00    +0.000 C 
ENDROOT
BRANCH   1  12
ATOM     11  C   UNL     1     -19.336  11.155 -10.091  0.00  0.00    +0.000 C 
ATOM     12  C   UNL     1     -18.303  12.241 -10.140  0.00  0.00    +0.000 C 
ATOM     13  N   UNL     1     -18.061  12.989 -11.417  0.00  0.00    +0.000 NA
ENDBRANCH   1  12
TORSDOF 1
ENDMDL
MODEL 2
REMARK VINA RESULT:      -5.4      0.665      2.448
REMARK  Name = 
REMARK  1 active torsions:
REMARK  status: ('A' for Active; 'I' for Inactive)
REMARK    1  A    between atoms: C_2  and  C_4
REMARK                            x       y       z     vdW  Elec       q    Type
REMARK                         _______ _______ _______ _____ _____    ______ ____
ROOT
ATOM      1  C   UNL     1     -17.201  11.887  -9.493  0.00  0.00    +0.000 C 
ATOM      2  C   UNL     1     -17.440  12.771  -8.306  0.00  0.00    +0.000 C 
ATOM      3  C   UNL     1     -16.356  12.968  -7.287  0.00  0.00    +0.000 C 
ATOM      4  C   UNL     1     -15.034  12.280  -7.457  0.00  0.00    +0.000 C 
ATOM      5  C   UNL     1     -14.795  11.395  -8.644  0.00  0.00    +0.000 C 
ATOM      6  C   UNL     1     -17.861  12.551  -8.920  0.00  0.00    +0.000 C 
ATOM      7  C   UNL     1     -18.762  13.459  -8.136  0.00  0.00    +0.000 C 
ATOM      8  C   UNL     1     -17.678  13.656  -7.118  0.00  0.00    +0.000 C 
ATOM      9  C   UNL     1     -18.523  12.575  -9.324  0.00  0.00    +0.000 C 
ATOM     10  C   UNL     1     -15.879  11.199  -9.663  0.00  0.00    +0.000 C 
ENDROOT
BRANCH   1  12
ATOM     11  C   UNL     1     -19.211  10.515 -10.404  0.00  0.00    +0.000 C 
ATOM     12  C   UNL     1     -18.285  11.690 -10.512  0.00  0.00    +0.000 C 
ATOM     13  N   UNL     1     -18.442  12.668 -11.638  0.00  0.00    +0.000 NA
ENDBRANCH   1  12
TORSDOF 1
ENDMDL
MODEL 3
REMARK VINA RESULT:      -5.4      1.963      3.406
REMARK  Name = 
REMARK  1 active torsions:
REMARK  status: ('A' for Active; 'I' for Inactive)
REMARK    1  A    between atoms: C_2  and  C_4
REMARK                            x       y       z     vdW  Elec       q    Type
REMARK                         _______ _______ _______ _____ _____    ______ ____
ROOT
ATOM      1  C   UNL     1     -16.791  12.972  -8.005  0.00  0.00    +0.000 C 
ATOM      2  C   UNL     1     -16.370  11.907  -8.973  0.00  0.00    +0.000 C 
ATOM      3  C   UNL     1     -17.392  11.239  -9.845  0.00  0.00    +0.000 C 
ATOM      4  C   UNL     1     -18.835  11.637  -9.747  0.00  0.00    +0.000 C 
ATOM      5  C   UNL     1     -19.256  12.702  -8.779  0.00  0.00    +0.000 C 
ATOM      6  C   UNL     1     -16.003  12.354  -8.455  0.00  0.00    +0.000 C 
ATOM      7  C   UNL     1     -14.927  11.509  -9.070  0.00  0.00    +0.000 C 
ATOM      8  C   UNL     1     -15.949  10.842  -9.942  0.00  0.00    +0.000 C 
ATOM      9  C   UNL     1     -15.348  12.575  -8.102  0.00  0.00    +0.000 C 
ATOM     10  C   UNL     1     -18.234  13.370  -7.908  0.00  0.00    +0.000 C 
ENDROOT
BRANCH   1  12
ATOM     11  C   UNL     1     -15.281  15.018  -7.471  0.00  0.00    +0.000 C 
ATOM     12  C   UNL     1     -15.769  13.640  -7.133  0.00  0.00    +0.000 C 
ATOM     13  N   UNL     1     -15.234  12.930  -5.925  0.00  0.00    +0.000 NA
ENDBRANCH   1  12
TORSDOF 1
ENDMDL
MODEL 4
REMARK VINA RESULT:      -5.3     15.795     17.589
REMARK  Name = 
REMARK  1 active torsions:
REMARK  status: ('A' for Active; 'I' for Inactive)
REMARK    1  A    between atoms: C_2  and  C_4
REMARK                            x       y       z     vdW  Elec       q    Type
REMARK                         _______ _______ _______ _____ _____    ______ ____
ROOT
ATOM      1  C   UNL     1      -4.437   8.766   3.555  0.00  0.00    +0.000 C 
ATOM      2  C   UNL     1      -5.828   8.928   3.019  0.00  0.00    +0.000 C 
ATOM      3  C   UNL     1      -6.955   9.269   3.948  0.00  0.00    +0.000 C 
ATOM      4  C   UNL     1      -6.691   9.447   5.414  0.00  0.00    +0.000 C 
ATOM      5  C   UNL     1      -5.300   9.285   5.950  0.00  0.00    +0.000 C 
ATOM      6  C   UNL     1      -5.137   8.759   2.709  0.00  0.00    +0.000 C 
ATOM      7  C   UNL     1      -6.092   8.750   1.553  0.00  0.00    +0.000 C 
ATOM      8  C   UNL     1      -7.219   9.091   2.482  0.00  0.00    +0.000 C 
ATOM      9  C   UNL     1      -4.701   8.587   2.089  0.00  0.00    +0.000 C 
ATOM     10  C   UNL     1      -4.173   8.944   5.021  0.00  0.00    +0.000 C 
ENDROOT
BRANCH   1  12
ATOM     11  C   UNL     1      -2.899   6.994   2.438  0.00  0.00    +0.000 C 
ATOM     12  C   UNL     1      -3.310   8.425   2.626  0.00  0.00    +0.000 C 
ATOM     13  N   UNL     1      -2.593   9.514   1.885  0.00  0.00    +0.000 NA
ENDBRANCH   1  12
TORSDOF 1
ENDMDL
MODEL 5
REMARK VINA RESULT:      -5.2      1.420      3.033
REMARK  Name = 
REMARK  1 active torsions:
REMARK  status: ('A' for Active; 'I' for Inactive)
REMARK    1  A    between atoms: C_2  and  C_4
REMARK                            x       y       z     vdW  Elec       q    Type
REMARK                         _______ _______ _______ _____ _____    ______ ____
ROOT
ATOM      1  C   UNL     1     -16.903  12.993  -8.141  0.00  0.00    +0.000 C 
ATOM      2  C   UNL     1     -18.098  12.447  -8.864  0.00  0.00    +0.000 C 
ATOM      3  C   UNL     1     -19.480  12.845  -8.436  0.00  0.00    +0.000 C 
ATOM      4  C   UNL     1     -19.667  13.788  -7.285  0.00  0.00    +0.000 C 
ATOM      5  C   UNL     1     -18.471  14.334  -6.562  0.00  0.00    +0.000 C 
ATOM      6  C   UNL     1     -17.329  12.364  -8.933  0.00  0.00    +0.000 C 
ATOM      7  C   UNL     1     -17.912  11.504 -10.015  0.00  0.00    +0.000 C 
ATOM      8  C   UNL     1     -19.294  11.901  -9.588  0.00  0.00    +0.000 C 
ATOM      9  C   UNL     1     -16.717  12.050  -9.292  0.00  0.00    +0.000 C 
ATOM     10  C   UNL     1     -17.090  13.937  -6.990  0.00  0.00    +0.000 C 
ENDROOT
BRANCH   1  12
ATOM     11  C   UNL     1     -14.898  11.346  -8.021  0.00  0.00    +0.000 C 
ATOM     12  C   UNL     1     -15.522  12.596  -8.568  0.00  0.00    +0.000 C 
ATOM     13  N   UNL     1     -14.764  13.448  -9.543  0.00  0.00    +0.000 NA
ENDBRANCH   1  12
TORSDOF 1
ENDMDL
MODEL 6
REMARK VINA RESULT:      -5.0      1.554      3.228
REMARK  Name = 
REMARK  1 active torsions:
REMARK  status: ('A' for Active; 'I' for Inactive)
REMARK    1  A    between atoms: C_2  and  C_4
REMARK                            x       y       z     vdW  Elec       q    Type
REMARK                         _______ _______ _______ _____ _____    ______ ____
ROOT
ATOM      1  C   UNL     1     -17.456  13.413  -7.664  0.00  0.00    +0.000 C 
ATOM      2  C   UNL     1     -17.825  12.467  -8.768  0.00  0.00    +0.000 C 
ATOM      3  C   UNL     1     -16.810  11.497  -9.296  0.00  0.00    +0.000 C 
ATOM      4  C   UNL     1     -15.425  11.473  -8.720  0.00  0.00    +0.000 C 
ATOM      5  C   UNL     1     -15.056  12.419  -7.616  0.00  0.00    +0.000 C 
ATOM      6  C   UNL     1     -18.197  13.023  -8.374  0.00  0.00    +0.000 C 
ATOM      7  C   UNL     1     -19.210  12.491  -9.344  0.00  0.00    +0.000 C 
ATOM      8  C   UNL     1     -18.195  11.522  -9.872  0.00  0.00    +0.000 C 
ATOM      9  C   UNL     1     -18.840  13.437  -8.240  0.00  0.00    +0.000 C 
ATOM     10  C   UNL     1     -16.071  13.389  -7.088  0.00  0.00    +0.000 C 
ENDROOT
BRANCH   1  12
ATOM     11  C   UNL     1     -19.244  14.056  -5.893  0.00  0.00    +0.000 C 
ATOM     12  C   UNL     1     -18.471  14.383  -7.136  0.00  0.00    +0.000 C 
ATOM     13  N   UNL     1     -18.713  15.679  -7.851  0.00  0.00    +0.000 NA
ENDBRANCH   1  12
TORSDOF 1
ENDMDL
MODEL 7
REMARK VINA RESULT:      -5.0     16.087     17.774
REMARK  Name = 
REMARK  1 active torsions:
REMARK  status: ('A' for Active; 'I' for Inactive)
REMARK    1  A    between atoms: C_2  and  C_4
REMARK                            x       y       z     vdW  Elec       q    Type
REMARK                         _______ _______ _______ _____ _____    ______ ____
ROOT
ATOM      1  C   UNL     1      -3.996   9.326   1.934  0.00  0.00    +0.000 C 
ATOM      2  C   UNL     1      -3.130   8.200   2.415  0.00  0.00    +0.000 C 
ATOM      3  C   UNL     1      -1.709   8.093   1.945  0.00  0.00    +0.000 C 
ATOM      4  C   UNL     1      -1.155   9.113   0.994  0.00  0.00    +0.000 C 
ATOM      5  C   UNL     1      -2.022  10.239   0.514  0.00  0.00    +0.000 C 
ATOM      6  C   UNL     1      -3.864   8.419   2.540  0.00  0.00    +0.000 C 
ATOM      7  C   UNL     1      -3.684   7.181   3.366  0.00  0.00    +0.000 C 
ATOM      8  C   UNL     1      -2.263   7.074   2.896  0.00  0.00    +0.000 C 
ATOM      9  C   UNL     1      -4.550   8.307   2.885  0.00  0.00    +0.000 C 
ATOM     10  C   UNL     1      -3.442  10.345   0.984  0.00  0.00    +0.000 C 
ENDROOT
BRANCH   1  12
ATOM     11  C   UNL     1      -6.502   8.689   1.685  0.00  0.00    +0.000 C 
ATOM     12  C   UNL     1      -5.416   9.433   2.404  0.00  0.00    +0.000 C 
ATOM     13  N   UNL     1      -5.751  10.283   3.594  0.00  0.00    +0.000 NA
ENDBRANCH   1  12
TORSDOF 1
ENDMDL
MODEL 8
REMARK VINA RESULT:      -4.8     15.963     17.931
REMARK  Name = 
REMARK  1 active torsions:
REMARK  status: ('A' for Active; 'I' for Inactive)
REMARK    1  A    between atoms: C_2  and  C_4
REMARK                            x       y       z     vdW  Elec       q    Type
REMARK                         _______ _______ _______ _____ _____    ______ ____
ROOT
ATOM      1  C   UNL     1      -4.948   9.845   3.428  0.00  0.00    +0.000 C 
ATOM      2  C   UNL     1      -5.632   9.129   4.555  0.00  0.00    +0.000 C 
ATOM      3  C   UNL     1      -6.714   8.132   4.263  0.00  0.00    +0.000 C 
ATOM      4  C   UNL     1      -7.111   7.850   2.844  0.00  0.00    +0.000 C 
ATOM      5  C   UNL     1      -6.427   8.565   1.718  0.00  0.00    +0.000 C 
ATOM      6  C   UNL     1      -5.069   9.662   4.504  0.00  0.00    +0.000 C 
ATOM      7  C   UNL     1      -5.235   9.411   5.974  0.00  0.00    +0.000 C 
ATOM      8  C   UNL     1      -6.317   8.414   5.682  0.00  0.00    +0.000 C 
ATOM      9  C   UNL     1      -4.551  10.127   4.847  0.00  0.00    +0.000 C 
ATOM     10  C   UNL     1      -5.345   9.563   2.010  0.00  0.00    +0.000 C 
ENDROOT
BRANCH   1  12
ATOM     11  C   UNL     1      -2.427  10.419   3.687  0.00  0.00    +0.000 C 
ATOM     12  C   UNL     1      -3.866  10.842   3.720  0.00  0.00    +0.000 C 
ATOM     13  N   UNL     1      -4.223  12.262   4.045  0.00  0.00    +0.000 NA
ENDBRANCH   1  12
TORSDOF 1
ENDMDL
MODEL 9
REMARK VINA RESULT:      -4.8      2.184      4.275
REMARK  Name = 
REMARK  1 active torsions:
REMARK  status: ('A' for Active; 'I' for Inactive)
REMARK    1  A    between atoms: C_2  and  C_4
REMARK                            x       y       z     vdW  Elec       q    Type
REMARK                         _______ _______ _______ _____ _____    ______ ____
ROOT
ATOM      1  C   UNL     1     -15.551  12.848  -8.178  0.00  0.00    +0.000 C 
ATOM      2  C   UNL     1     -17.040  13.022  -8.140  0.00  0.00    +0.000 C 
ATOM      3  C   UNL     1     -17.918  12.164  -9.003  0.00  0.00    +0.000 C 
ATOM      4  C   UNL     1     -17.306  11.132  -9.903  0.00  0.00    +0.000 C 
ATOM      5  C   UNL     1     -15.816  10.958  -9.941  0.00  0.00    +0.000 C 
ATOM      6  C   UNL     1     -16.439  13.358  -7.781  0.00  0.00    +0.000 C 
ATOM      7  C   UNL     1     -17.653  14.054  -7.240  0.00  0.00    +0.000 C 
ATOM      8  C   UNL     1     -18.530  13.196  -8.102  0.00  0.00    +0.000 C 
ATOM      9  C   UNL     1     -16.163  13.880  -7.278  0.00  0.00    +0.000 C 
ATOM     10  C   UNL     1     -14.939  11.816  -9.078  0.00  0.00    +0.000 C 
ENDROOT
BRANCH   1  12
ATOM     11  C   UNL     1     -14.151  15.010  -7.840  0.00  0.00    +0.000 C 
ATOM     12  C   UNL     1     -14.674  13.706  -7.315  0.00  0.00    +0.000 C 
ATOM     13  N   UNL     1     -14.320  13.260  -5.928  0.00  0.00    +0.000 NA
ENDBRANCH   1  12
TORSDOF 1
ENDMDL
