MODEL 1
REMARK VINA RESULT:      -5.5      0.000      0.000
REMARK  Name = 
REMARK  2 active torsions:
REMARK  status: ('A' for Active; 'I' for Inactive)
REMARK    1  A    between atoms: C_6  and  C_7
REMARK    2  A    between atoms: C_7  and  N_8
REMARK                            x       y       z     vdW  Elec       q    Type
REMARK                         _______ _______ _______ _____ _____    ______ ____
ROOT
ATOM      1  N   UNL     1      -2.898   9.146   3.450  0.00  0.00    +0.000 N 
ATOM      2  C   UNL     1      -4.325   8.715   3.281  0.00  0.00    +0.000 A 
ATOM      3  C   UNL     1      -5.009   8.888   1.957  0.00  0.00    +0.000 A 
ATOM      4  C   UNL     1      -6.435   8.457   1.788  0.00  0.00    +0.000 A 
ATOM      5  C   UNL     1      -7.178   7.853   2.943  0.00  0.00    +0.000 A 
ATOM      6  C   UNL     1      -6.495   7.681   4.267  0.00  0.00    +0.000 A 
ATOM      7  C   UNL     1      -5.068   8.112   4.436  0.00  0.00    +0.000 A 
ATOM      8  S   UNL     1      -4.384   7.939   5.760  0.00  0.00    +0.000 S 
ATOM      9  C   UNL     1      -2.957   8.370   5.929  0.00  0.00    +0.000 A 
ATOM     10  C   UNL     1      -2.274   8.198   7.253  0.00  0.00    +0.000 A 
ATOM     11  C   UNL     1      -0.847   8.629   7.422  0.00  0.00    +0.000 A 
ATOM     12  C   UNL     1      -0.104   9.232   6.267  0.00  0.00    +0.000 A 
ATOM     13  C   UNL     1      -0.788   9.405   4.943  0.00  0.00    +0.000 A 
ATOM     14  C   UNL     1      -2.214   8.974   4.774  0.00  0.00    +0.000 A 
ENDROOT
BRANCH   1  15
ATOM     15  C   UNL     1      -2.155   9.750   2.295  0.00  0.00    +0.000 C 
BRANCH  15  21
ATOM     16  C   UNL     1       0.985   9.210  -1.810  0.00  0.00    +0.000 C 
ATOM     17  N   UNL     1       0.204   8.602  -0.683  0.00  0.00    +0.000 NA
ATOM     18  C   UNL     1       0.213   7.116  -0.481  0.00  0.00    +0.000 C 
ATOM     19  C   UNL     1      -0.568   6.507   0.647  0.00  0.00    +0.000 C 
ATOM     20  C   UNL     1      -1.357   7.386   1.572  0.00  0.00    +0.000 C 
ATOM     21  C   UNL     1      -1.366   8.872   1.370  0.00  0.00    +0.000 C 
ATOM     22  C   UNL     1      -0.585   9.480   0.243  0.00  0.00    +0.000 C 
ENDBRANCH  15  21
ENDBRANCH   1  15
TORSDOF 2
ENDMDL
MODEL 2
REMARK VINA RESULT:      -5.5      0.075      4.145
REMARK  Name = 
REMARK  2 active torsions:
REMARK  status: ('A' for Active; 'I' for Inactive)
REMARK    1  A    between atoms: C_6  and  C_7
REMARK    2  A    between atoms: C_7  and  N_8
REMARK                            x       y       z     vdW  Elec       q    Type
REMARK                         _______ _______ _______ _____ _____    ______ ____
ROOT
ATOM      1  N   UNL     1      -2.918   9.138   3.495  0.00  0.00    +0.000 N 
ATOM      2  C   UNL     1      -2.259   8.961   4.831  0.00  0.00    +0.000 A 
ATOM      3  C   UNL     1      -0.832   9.380   5.025  0.00  0.00    +0.000 A 
ATOM      4  C   UNL     1      -0.173   9.204   6.361  0.00  0.00    +0.000 A 
ATOM      5  C   UNL     1      -0.941   8.608   7.503  0.00  0.00    +0.000 A 
ATOM      6  C   UNL     1      -2.369   8.189   7.310  0.00  0.00    +0.000 A 
ATOM      7  C   UNL     1      -3.027   8.366   5.974  0.00  0.00    +0.000 A 
ATOM      8  S   UNL     1      -4.455   7.947   5.780  0.00  0.00    +0.000 S 
ATOM      9  C   UNL     1      -5.113   8.123   4.444  0.00  0.00    +0.000 A 
ATOM     10  C   UNL     1      -6.541   7.704   4.251  0.00  0.00    +0.000 A 
ATOM     11  C   UNL     1      -7.199   7.880   2.915  0.00  0.00    +0.000 A 
ATOM     12  C   UNL     1      -6.431   8.476   1.772  0.00  0.00    +0.000 A 
ATOM     13  C   UNL     1      -5.004   8.895   1.966  0.00  0.00    +0.000 A 
ATOM     14  C   UNL     1      -4.345   8.718   3.302  0.00  0.00    +0.000 A 
ENDROOT
BRANCH   1  15
ATOM     15  C   UNL     1      -2.149   9.733   2.353  0.00  0.00    +0.000 C 
BRANCH  15  21
ATOM     16  C   UNL     1       0.963   9.149  -1.766  0.00  0.00    +0.000 C 
ATOM     17  N   UNL     1       0.182   8.552  -0.633  0.00  0.00    +0.000 NA
ATOM     18  C   UNL     1       0.177   7.066  -0.427  0.00  0.00    +0.000 C 
ATOM     19  C   UNL     1      -0.604   6.470   0.706  0.00  0.00    +0.000 C 
ATOM     20  C   UNL     1      -1.380   7.358   1.633  0.00  0.00    +0.000 C 
ATOM     21  C   UNL     1      -1.374   8.844   1.427  0.00  0.00    +0.000 C 
ATOM     22  C   UNL     1      -0.593   9.441   0.294  0.00  0.00    +0.000 C 
ENDBRANCH  15  21
ENDBRANCH   1  15
TORSDOF 2
ENDMDL
MODEL 3
REMARK VINA RESULT:      -5.4     16.070     19.531
REMARK  Name = 
REMARK  2 active torsions:
REMARK  status: ('A' for Active; 'I' for Inactive)
REMARK    1  A    between atoms: C_6  and  C_7
REMARK    2  A    between atoms: C_7  and  N_8
REMARK                            x       y       z     vdW  Elec       q    Type
REMARK                         _______ _______ _______ _____ _____    ______ ____
ROOT
ATOM      1  N   UNL     1     -17.214  14.925  -6.569  0.00  0.00    +0.000 N 
ATOM      2  C   UNL     1     -15.880  15.281  -5.983  0.00  0.00    +0.000 A 
ATOM      3  C   UNL     1     -15.768  16.416  -5.009  0.00  0.00    +0.000 A 
ATOM      4  C   UNL     1     -14.434  16.772  -4.422  0.00  0.00    +0.000 A 
ATOM      5  C   UNL     1     -13.212  15.993  -4.810  0.00  0.00    +0.000 A 
ATOM      6  C   UNL     1     -13.324  14.858  -5.784  0.00  0.00    +0.000 A 
ATOM      7  C   UNL     1     -14.658  14.502  -6.370  0.00  0.00    +0.000 A 
ATOM      8  S   UNL     1     -14.770  13.366  -7.344  0.00  0.00    +0.000 S 
ATOM      9  C   UNL     1     -16.104  13.010  -7.930  0.00  0.00    +0.000 A 
ATOM     10  C   UNL     1     -16.216  11.875  -8.904  0.00  0.00    +0.000 A 
ATOM     11  C   UNL     1     -17.550  11.519  -9.490  0.00  0.00    +0.000 A 
ATOM     12  C   UNL     1     -18.772  12.298  -9.103  0.00  0.00    +0.000 A 
ATOM     13  C   UNL     1     -18.660  13.433  -8.129  0.00  0.00    +0.000 A 
ATOM     14  C   UNL     1     -17.326  13.789  -7.543  0.00  0.00    +0.000 A 
ENDROOT
BRANCH   1  15
ATOM     15  C   UNL     1     -18.436  15.704  -6.181  0.00  0.00    +0.000 C 
BRANCH  15  21
ATOM     16  C   UNL     1     -19.821  16.610  -1.256  0.00  0.00    +0.000 C 
ATOM     17  N   UNL     1     -19.907  15.771  -2.496  0.00  0.00    +0.000 NA
ATOM     18  C   UNL     1     -20.773  14.546  -2.514  0.00  0.00    +0.000 C 
ATOM     19  C   UNL     1     -20.860  13.707  -3.755  0.00  0.00    +0.000 C 
ATOM     20  C   UNL     1     -20.080  14.093  -4.977  0.00  0.00    +0.000 C 
ATOM     21  C   UNL     1     -19.215  15.318  -4.959  0.00  0.00    +0.000 C 
ATOM     22  C   UNL     1     -19.128  16.157  -3.719  0.00  0.00    +0.000 C 
ENDBRANCH  15  21
ENDBRANCH   1  15
TORSDOF 2
ENDMDL
MODEL 4
REMARK VINA RESULT:      -5.4     16.114     19.241
REMARK  Name = 
REMARK  2 active torsions:
REMARK  status: ('A' for Active; 'I' for Inactive)
REMARK    1  A    between atoms: C_6  and  C_7
REMARK    2  A    between atoms: C_7  and  N_8
REMARK                            x       y       z     vdW  Elec       q    Type
REMARK                         _______ _______ _______ _____ _____    ______ ____
ROOT
ATOM      1  N   UNL     1     -17.251  14.767  -6.846  0.00  0.00    +0.000 N 
ATOM      2  C   UNL     1     -17.425  13.631  -7.810  0.00  0.00    +0.000 A 
ATOM      3  C   UNL     1     -18.780  13.327  -8.375  0.00  0.00    +0.000 A 
ATOM      4  C   UNL     1     -18.954  12.191  -9.339  0.00  0.00    +0.000 A 
ATOM      5  C   UNL     1     -17.772  11.359  -9.738  0.00  0.00    +0.000 A 
ATOM      6  C   UNL     1     -16.416  11.662  -9.173  0.00  0.00    +0.000 A 
ATOM      7  C   UNL     1     -16.242  12.798  -8.209  0.00  0.00    +0.000 A 
ATOM      8  S   UNL     1     -14.886  13.102  -7.644  0.00  0.00    +0.000 S 
ATOM      9  C   UNL     1     -14.713  14.238  -6.680  0.00  0.00    +0.000 A 
ATOM     10  C   UNL     1     -13.357  14.541  -6.115  0.00  0.00    +0.000 A 
ATOM     11  C   UNL     1     -13.183  15.677  -5.150  0.00  0.00    +0.000 A 
ATOM     12  C   UNL     1     -14.366  16.509  -4.751  0.00  0.00    +0.000 A 
ATOM     13  C   UNL     1     -15.722  16.206  -5.317  0.00  0.00    +0.000 A 
ATOM     14  C   UNL     1     -15.895  15.070  -6.281  0.00  0.00    +0.000 A 
ENDROOT
BRANCH   1  15
ATOM     15  C   UNL     1     -18.433  15.599  -6.447  0.00  0.00    +0.000 C 
BRANCH  15  21
ATOM     16  C   UNL     1     -19.608  16.780  -1.525  0.00  0.00    +0.000 C 
ATOM     17  N   UNL     1     -19.760  15.882  -2.717  0.00  0.00    +0.000 NA
ATOM     18  C   UNL     1     -20.652  14.679  -2.641  0.00  0.00    +0.000 C 
ATOM     19  C   UNL     1     -20.804  13.782  -3.834  0.00  0.00    +0.000 C 
ATOM     20  C   UNL     1     -20.064  14.088  -5.102  0.00  0.00    +0.000 C 
ATOM     21  C   UNL     1     -19.173  15.292  -5.178  0.00  0.00    +0.000 C 
ATOM     22  C   UNL     1     -19.021  16.189  -3.986  0.00  0.00    +0.000 C 
ENDBRANCH  15  21
ENDBRANCH   1  15
TORSDOF 2
ENDMDL
MODEL 5
REMARK VINA RESULT:      -5.4     12.323     14.608
REMARK  Name = 
REMARK  2 active torsions:
REMARK  status: ('A' for Active; 'I' for Inactive)
REMARK    1  A    between atoms: C_6  and  C_7
REMARK    2  A    between atoms: C_7  and  N_8
REMARK                            x       y       z     vdW  Elec       q    Type
REMARK                         _______ _______ _______ _____ _____    ______ ____
ROOT
ATOM      1  N   UNL     1      -9.938  16.365  -5.923  0.00  0.00    +0.000 N 
ATOM      2  C   UNL     1      -8.631  15.758  -6.341  0.00  0.00    +0.000 A 
ATOM      3  C   UNL     1      -8.472  15.202  -7.725  0.00  0.00    +0.000 A 
ATOM      4  C   UNL     1      -7.166  14.595  -8.144  0.00  0.00    +0.000 A 
ATOM      5  C   UNL     1      -6.018  14.545  -7.179  0.00  0.00    +0.000 A 
ATOM      6  C   UNL     1      -6.178  15.102  -5.795  0.00  0.00    +0.000 A 
ATOM      7  C   UNL     1      -7.484  15.708  -5.376  0.00  0.00    +0.000 A 
ATOM      8  S   UNL     1      -7.643  16.265  -3.993  0.00  0.00    +0.000 S 
ATOM      9  C   UNL     1      -8.950  16.871  -3.574  0.00  0.00    +0.000 A 
ATOM     10  C   UNL     1      -9.109  17.428  -2.190  0.00  0.00    +0.000 A 
ATOM     11  C   UNL     1     -10.415  18.034  -1.771  0.00  0.00    +0.000 A 
ATOM     12  C   UNL     1     -11.563  18.084  -2.737  0.00  0.00    +0.000 A 
ATOM     13  C   UNL     1     -11.403  17.528  -4.120  0.00  0.00    +0.000 A 
ATOM     14  C   UNL     1     -10.097  16.921  -4.539  0.00  0.00    +0.000 A 
ENDROOT
BRANCH   1  15
ATOM     15  C   UNL     1     -11.085  16.415  -6.888  0.00  0.00    +0.000 C 
BRANCH  15  21
ATOM     16  C   UNL     1     -12.897  12.375  -9.608  0.00  0.00    +0.000 C 
ATOM     17  N   UNL     1     -12.919  13.223  -8.371  0.00  0.00    +0.000 NA
ATOM     18  C   UNL     1     -13.870  12.899  -7.256  0.00  0.00    +0.000 C 
ATOM     19  C   UNL     1     -13.892  13.747  -6.020  0.00  0.00    +0.000 C 
ATOM     20  C   UNL     1     -12.964  14.919  -5.897  0.00  0.00    +0.000 C 
ATOM     21  C   UNL     1     -12.013  15.243  -7.011  0.00  0.00    +0.000 C 
ATOM     22  C   UNL     1     -11.991  14.395  -8.248  0.00  0.00    +0.000 C 
ENDBRANCH  15  21
ENDBRANCH   1  15
TORSDOF 2
ENDMDL
MODEL 6
REMARK VINA RESULT:      -5.3     13.652     16.368
REMARK  Name = 
REMARK  2 active torsions:
REMARK  status: ('A' for Active; 'I' for Inactive)
REMARK    1  A    between atoms: C_6  and  C_7
REMARK    2  A    between atoms: C_7  and  N_8
REMARK                            x       y       z     vdW  Elec       q    Type
REMARK                         _______ _______ _______ _____ _____    ______ ____
ROOT
ATOM      1  N   UNL     1     -13.083  15.556  -7.808  0.00  0.00    +0.000 N 
ATOM      2  C   UNL     1     -13.656  16.378  -6.692  0.00  0.00    +0.000 A 
ATOM      3  C   UNL     1     -13.117  17.751  -6.420  0.00  0.00    +0.000 A 
ATOM      4  C   UNL     1     -13.690  18.574  -5.303  0.00  0.00    +0.000 A 
ATOM      5  C   UNL     1     -14.801  18.022  -4.459  0.00  0.00    +0.000 A 
ATOM      6  C   UNL     1     -15.339  16.649  -4.732  0.00  0.00    +0.000 A 
ATOM      7  C   UNL     1     -14.766  15.827  -5.848  0.00  0.00    +0.000 A 
ATOM      8  S   UNL     1     -15.305  14.453  -6.120  0.00  0.00    +0.000 S 
ATOM      9  C   UNL     1     -14.732  13.631  -7.237  0.00  0.00    +0.000 A 
ATOM     10  C   UNL     1     -15.270  12.258  -7.509  0.00  0.00    +0.000 A 
ATOM     11  C   UNL     1     -14.698  11.436  -8.625  0.00  0.00    +0.000 A 
ATOM     12  C   UNL     1     -13.587  11.987  -9.469  0.00  0.00    +0.000 A 
ATOM     13  C   UNL     1     -13.049  13.360  -9.197  0.00  0.00    +0.000 A 
ATOM     14  C   UNL     1     -13.621  14.183  -8.081  0.00  0.00    +0.000 A 
ENDROOT
BRANCH   1  15
ATOM     15  C   UNL     1     -11.972  16.107  -8.652  0.00  0.00    +0.000 C 
BRANCH  15  21
ATOM     16  C   UNL     1      -8.029  15.580  -5.309  0.00  0.00    +0.000 C 
ATOM     17  N   UNL     1      -8.580  15.454  -6.699  0.00  0.00    +0.000 NA
ATOM     18  C   UNL     1      -7.710  14.937  -7.806  0.00  0.00    +0.000 C 
ATOM     19  C   UNL     1      -8.261  14.811  -9.196  0.00  0.00    +0.000 C 
ATOM     20  C   UNL     1      -9.682  15.201  -9.478  0.00  0.00    +0.000 C 
ATOM     21  C   UNL     1     -10.552  15.717  -8.370  0.00  0.00    +0.000 C 
ATOM     22  C   UNL     1     -10.001  15.844  -6.981  0.00  0.00    +0.000 C 
ENDBRANCH  15  21
ENDBRANCH   1  15
TORSDOF 2
ENDMDL
MODEL 7
REMARK VINA RESULT:      -5.3     13.650     16.165
REMARK  Name = 
REMARK  2 active torsions:
REMARK  status: ('A' for Active; 'I' for Inactive)
REMARK    1  A    between atoms: C_6  and  C_7
REMARK    2  A    between atoms: C_7  and  N_8
REMARK                            x       y       z     vdW  Elec       q    Type
REMARK                         _______ _______ _______ _____ _____    ______ ____
ROOT
ATOM      1  N   UNL     1     -13.085  15.558  -7.801  0.00  0.00    +0.000 N 
ATOM      2  C   UNL     1     -13.624  14.185  -8.077  0.00  0.00    +0.000 A 
ATOM      3  C   UNL     1     -13.049  13.365  -9.194  0.00  0.00    +0.000 A 
ATOM      4  C   UNL     1     -13.588  11.993  -9.470  0.00  0.00    +0.000 A 
ATOM      5  C   UNL     1     -14.700  11.440  -8.629  0.00  0.00    +0.000 A 
ATOM      6  C   UNL     1     -15.274  12.260  -7.512  0.00  0.00    +0.000 A 
ATOM      7  C   UNL     1     -14.736  13.633  -7.236  0.00  0.00    +0.000 A 
ATOM      8  S   UNL     1     -15.310  14.453  -6.119  0.00  0.00    +0.000 S 
ATOM      9  C   UNL     1     -14.772  15.826  -5.843  0.00  0.00    +0.000 A 
ATOM     10  C   UNL     1     -15.346  16.646  -4.726  0.00  0.00    +0.000 A 
ATOM     11  C   UNL     1     -14.808  18.018  -4.450  0.00  0.00    +0.000 A 
ATOM     12  C   UNL     1     -13.695  18.571  -5.291  0.00  0.00    +0.000 A 
ATOM     13  C   UNL     1     -13.121  17.751  -6.408  0.00  0.00    +0.000 A 
ATOM     14  C   UNL     1     -13.659  16.378  -6.684  0.00  0.00    +0.000 A 
ENDROOT
BRANCH   1  15
ATOM     15  C   UNL     1     -11.973  16.110  -8.642  0.00  0.00    +0.000 C 
BRANCH  15  21
ATOM     16  C   UNL     1      -8.029  15.619  -5.295  0.00  0.00    +0.000 C 
ATOM     17  N   UNL     1      -8.580  15.476  -6.682  0.00  0.00    +0.000 NA
ATOM     18  C   UNL     1      -7.712  14.945  -7.784  0.00  0.00    +0.000 C 
ATOM     19  C   UNL     1      -8.264  14.802  -9.171  0.00  0.00    +0.000 C 
ATOM     20  C   UNL     1      -9.684  15.191  -9.457  0.00  0.00    +0.000 C 
ATOM     21  C   UNL     1     -10.552  15.722  -8.356  0.00  0.00    +0.000 C 
ATOM     22  C   UNL     1     -10.001  15.865  -6.968  0.00  0.00    +0.000 C 
ENDBRANCH  15  21
ENDBRANCH   1  15
TORSDOF 2
ENDMDL
MODEL 8
REMARK VINA RESULT:      -5.3     17.338     20.382
REMARK  Name = 
REMARK  2 active torsions:
REMARK  status: ('A' for Active; 'I' for Inactive)
REMARK    1  A    between atoms: C_6  and  C_7
REMARK    2  A    between atoms: C_7  and  N_8
REMARK                            x       y       z     vdW  Elec       q    Type
REMARK                         _______ _______ _______ _____ _____    ______ ____
ROOT
ATOM      1  N   UNL     1     -18.510  14.565  -6.861  0.00  0.00    +0.000 N 
ATOM      2  C   UNL     1     -18.245  13.482  -7.864  0.00  0.00    +0.000 A 
ATOM      3  C   UNL     1     -19.387  12.844  -8.599  0.00  0.00    +0.000 A 
ATOM      4  C   UNL     1     -19.122  11.762  -9.602  0.00  0.00    +0.000 A 
ATOM      5  C   UNL     1     -17.715  11.316  -9.872  0.00  0.00    +0.000 A 
ATOM      6  C   UNL     1     -16.573  11.954  -9.138  0.00  0.00    +0.000 A 
ATOM      7  C   UNL     1     -16.838  13.037  -8.134  0.00  0.00    +0.000 A 
ATOM      8  S   UNL     1     -15.696  13.675  -7.400  0.00  0.00    +0.000 S 
ATOM      9  C   UNL     1     -15.961  14.757  -6.396  0.00  0.00    +0.000 A 
ATOM     10  C   UNL     1     -14.819  15.395  -5.662  0.00  0.00    +0.000 A 
ATOM     11  C   UNL     1     -15.084  16.478  -4.658  0.00  0.00    +0.000 A 
ATOM     12  C   UNL     1     -16.491  16.923  -4.388  0.00  0.00    +0.000 A 
ATOM     13  C   UNL     1     -17.633  16.285  -5.123  0.00  0.00    +0.000 A 
ATOM     14  C   UNL     1     -17.368  15.202  -6.126  0.00  0.00    +0.000 A 
ENDROOT
BRANCH   1  15
ATOM     15  C   UNL     1     -19.917  15.010  -6.591  0.00  0.00    +0.000 C 
BRANCH  15  21
ATOM     16  C   UNL     1     -24.358  12.437  -5.783  0.00  0.00    +0.000 C 
ATOM     17  N   UNL     1     -23.022  12.910  -5.290  0.00  0.00    +0.000 NA
ATOM     18  C   UNL     1     -22.572  12.569  -3.900  0.00  0.00    +0.000 C 
ATOM     19  C   UNL     1     -21.237  13.042  -3.408  0.00  0.00    +0.000 C 
ATOM     20  C   UNL     1     -20.351  13.856  -4.305  0.00  0.00    +0.000 C 
ATOM     21  C   UNL     1     -20.802  14.196  -5.694  0.00  0.00    +0.000 C 
ATOM     22  C   UNL     1     -22.137  13.723  -6.187  0.00  0.00    +0.000 C 
ENDBRANCH  15  21
ENDBRANCH   1  15
TORSDOF 2
ENDMDL
MODEL 9
REMARK VINA RESULT:      -5.3     14.541     17.079
REMARK  Name = 
REMARK  2 active torsions:
REMARK  status: ('A' for Active; 'I' for Inactive)
REMARK    1  A    between atoms: C_6  and  C_7
REMARK    2  A    between atoms: C_7  and  N_8
REMARK                            x       y       z     vdW  Elec       q    Type
REMARK                         _______ _______ _______ _____ _____    ______ ____
ROOT
ATOM      1  N   UNL     1     -14.548  14.055  -6.670  0.00  0.00    +0.000 N 
ATOM      2  C   UNL     1     -15.278  13.173  -7.639  0.00  0.00    +0.000 A 
ATOM      3  C   UNL     1     -14.530  12.129  -8.414  0.00  0.00    +0.000 A 
ATOM      4  C   UNL     1     -15.260  11.248  -9.383  0.00  0.00    +0.000 A 
ATOM      5  C   UNL     1     -16.739  11.410  -9.577  0.00  0.00    +0.000 A 
ATOM      6  C   UNL     1     -17.487  12.454  -8.803  0.00  0.00    +0.000 A 
ATOM      7  C   UNL     1     -16.757  13.335  -7.833  0.00  0.00    +0.000 A 
ATOM      8  S   UNL     1     -17.505  14.379  -7.059  0.00  0.00    +0.000 S 
ATOM      9  C   UNL     1     -16.775  15.261  -6.089  0.00  0.00    +0.000 A 
ATOM     10  C   UNL     1     -17.523  16.305  -5.315  0.00  0.00    +0.000 A 
ATOM     11  C   UNL     1     -16.793  17.187  -4.345  0.00  0.00    +0.000 A 
ATOM     12  C   UNL     1     -15.314  17.024  -4.151  0.00  0.00    +0.000 A 
ATOM     13  C   UNL     1     -14.566  15.980  -4.926  0.00  0.00    +0.000 A 
ATOM     14  C   UNL     1     -15.296  15.099  -5.895  0.00  0.00    +0.000 A 
ENDROOT
BRANCH   1  15
ATOM     15  C   UNL     1     -13.070  13.892  -6.475  0.00  0.00    +0.000 C 
BRANCH  15  21
ATOM     16  C   UNL     1      -8.514  16.391  -6.539  0.00  0.00    +0.000 C 
ATOM     17  N   UNL     1      -9.839  16.089  -7.174  0.00  0.00    +0.000 NA
ATOM     18  C   UNL     1     -10.211  16.734  -8.476  0.00  0.00    +0.000 C 
ATOM     19  C   UNL     1     -11.536  16.431  -9.111  0.00  0.00    +0.000 C 
ATOM     20  C   UNL     1     -12.489  15.484  -8.444  0.00  0.00    +0.000 C 
ATOM     21  C   UNL     1     -12.117  14.839  -7.142  0.00  0.00    +0.000 C 
ATOM     22  C   UNL     1     -10.792  15.142  -6.507  0.00  0.00    +0.000 C 
ENDBRANCH  15  21
ENDBRANCH   1  15
TORSDOF 2
ENDMDL
