MODEL 1
REMARK VINA RESULT:      -6.0      0.000      0.000
REMARK  Name = 
REMARK  4 active torsions:
REMARK  status: ('A' for Active; 'I' for Inactive)
REMARK    1  A    between atoms: C_7  and  C_8
REMARK    2  A    between atoms: C_8  and  C_9
REMARK    3  A    between atoms: C_9  and  N_10
REMARK    4  A    between atoms: C_21  and  S_22
REMARK                            x       y       z     vdW  Elec       q    Type
REMARK                         _______ _______ _______ _____ _____    ______ ____
ROOT
ATOM      1  N   UNL     1     -11.876  15.977  -5.476  0.00  0.00    +0.000 N 
ATOM      2  C   UNL     1     -12.677  16.606  -4.374  0.00  0.00    +0.000 A 
ATOM      3  C   UNL     1     -14.174  16.507  -4.385  0.00  0.00    +0.000 A 
ATOM      4  C   UNL     1     -14.974  17.135  -3.282  0.00  0.00    +0.000 A 
ATOM      5  C   UNL     1     -14.278  17.862  -2.170  0.00  0.00    +0.000 A 
ATOM      6  C   UNL     1     -12.781  17.960  -2.159  0.00  0.00    +0.000 A 
ATOM      7  C   UNL     1     -11.981  17.332  -3.261  0.00  0.00    +0.000 A 
ATOM      8  S   UNL     1     -10.484  17.430  -3.251  0.00  0.00    +0.000 S 
ATOM      9  C   UNL     1      -9.683  16.802  -4.353  0.00  0.00    +0.000 A 
ATOM     10  C   UNL     1      -8.187  16.900  -4.343  0.00  0.00    +0.000 A 
ATOM     11  C   UNL     1      -7.386  16.272  -5.445  0.00  0.00    +0.000 A 
ATOM     12  C   UNL     1      -8.083  15.546  -6.557  0.00  0.00    +0.000 A 
ATOM     13  C   UNL     1      -9.579  15.448  -6.568  0.00  0.00    +0.000 A 
ATOM     14  C   UNL     1     -10.380  16.076  -5.466  0.00  0.00    +0.000 A 
ENDROOT
BRANCH  12  15
ATOM     15  S   UNL     1      -7.282  14.918  -7.660  0.00  0.00    +0.000 S 
ATOM     16  C   UNL     1      -5.845  14.554  -7.429  0.00  0.00    +0.000 C 
ATOM     17  O   UNL     1      -7.919  14.653  -8.992  0.00  0.00    +0.000 OA
ENDBRANCH  12  15
BRANCH   1  18
ATOM     18  C   UNL     1     -12.573  15.251  -6.589  0.00  0.00    +0.000 C 
BRANCH  18  19
ATOM     19  C   UNL     1     -12.776  13.768  -6.504  0.00  0.00    +0.000 C 
BRANCH  19  26
ATOM     20  C   UNL     1     -15.681  13.097  -6.178  0.00  0.00    +0.000 C 
ATOM     21  N   UNL     1     -14.959  12.712  -7.435  0.00  0.00    +0.000 NA
ATOM     22  C   UNL     1     -15.690  11.991  -8.529  0.00  0.00    +0.000 C 
ATOM     23  C   UNL     1     -14.968  11.606  -9.787  0.00  0.00    +0.000 C 
ATOM     24  C   UNL     1     -13.515  11.942  -9.950  0.00  0.00    +0.000 C 
ATOM     25  C   UNL     1     -12.785  12.662  -8.856  0.00  0.00    +0.000 C 
ATOM     26  C   UNL     1     -13.507  13.047  -7.598  0.00  0.00    +0.000 C 
ENDBRANCH  19  26
ENDBRANCH  18  19
ENDBRANCH   1  18
TORSDOF 4
ENDMDL
MODEL 2
REMARK VINA RESULT:      -5.9      2.685      5.531
REMARK  Name = 
REMARK  4 active torsions:
REMARK  status: ('A' for Active; 'I' for Inactive)
REMARK    1  A    between atoms: C_7  and  C_8
REMARK    2  A    between atoms: C_8  and  C_9
REMARK    3  A    between atoms: C_9  and  N_10
REMARK    4  A    between atoms: C_21  and  S_22
REMARK                            x       y       z     vdW  Elec       q    Type
REMARK                         _______ _______ _______ _____ _____    ______ ____
ROOT
ATOM      1  N   UNL     1     -11.720  15.628  -6.965  0.00  0.00    +0.000 N 
ATOM      2  C   UNL     1     -10.394  15.518  -7.657  0.00  0.00    +0.000 A 
ATOM      3  C   UNL     1     -10.296  14.829  -8.986  0.00  0.00    +0.000 A 
ATOM      4  C   UNL     1      -8.969  14.718  -9.677  0.00  0.00    +0.000 A 
ATOM      5  C   UNL     1      -7.741  15.297  -9.040  0.00  0.00    +0.000 A 
ATOM      6  C   UNL     1      -7.839  15.987  -7.712  0.00  0.00    +0.000 A 
ATOM      7  C   UNL     1      -9.165  16.097  -7.020  0.00  0.00    +0.000 A 
ATOM      8  S   UNL     1      -9.263  16.786  -5.691  0.00  0.00    +0.000 S 
ATOM      9  C   UNL     1     -10.589  16.896  -5.000  0.00  0.00    +0.000 A 
ATOM     10  C   UNL     1     -10.687  17.586  -3.671  0.00  0.00    +0.000 A 
ATOM     11  C   UNL     1     -12.014  17.696  -2.979  0.00  0.00    +0.000 A 
ATOM     12  C   UNL     1     -13.242  17.117  -3.616  0.00  0.00    +0.000 A 
ATOM     13  C   UNL     1     -13.144  16.428  -4.945  0.00  0.00    +0.000 A 
ATOM     14  C   UNL     1     -11.818  16.317  -5.637  0.00  0.00    +0.000 A 
ENDROOT
BRANCH  12  15
ATOM     15  S   UNL     1     -14.569  17.227  -2.925  0.00  0.00    +0.000 S 
ATOM     16  C   UNL     1     -15.837  17.008  -3.695  0.00  0.00    +0.000 C 
ATOM     17  O   UNL     1     -14.627  17.557  -1.462  0.00  0.00    +0.000 OA
ENDBRANCH  12  15
BRANCH   1  18
ATOM     18  C   UNL     1     -12.948  15.049  -7.602  0.00  0.00    +0.000 C 
BRANCH  18  19
ATOM     19  C   UNL     1     -13.363  13.642  -7.290  0.00  0.00    +0.000 C 
BRANCH  19  26
ATOM     20  C   UNL     1     -12.664  12.075  -9.751  0.00  0.00    +0.000 C 
ATOM     21  N   UNL     1     -14.097  12.200  -9.322  0.00  0.00    +0.000 NA
ATOM     22  C   UNL     1     -15.179  11.541 -10.125  0.00  0.00    +0.000 C 
ATOM     23  C   UNL     1     -16.612  11.666  -9.697  0.00  0.00    +0.000 C 
ATOM     24  C   UNL     1     -16.961  12.450  -8.466  0.00  0.00    +0.000 C 
ATOM     25  C   UNL     1     -15.878  13.108  -7.664  0.00  0.00    +0.000 C 
ATOM     26  C   UNL     1     -14.446  12.983  -8.092  0.00  0.00    +0.000 C 
ENDBRANCH  19  26
ENDBRANCH  18  19
ENDBRANCH   1  18
TORSDOF 4
ENDMDL
MODEL 3
REMARK VINA RESULT:      -5.7      2.897      7.005
REMARK  Name = 
REMARK  4 active torsions:
REMARK  status: ('A' for Active; 'I' for Inactive)
REMARK    1  A    between atoms: C_7  and  C_8
REMARK    2  A    between atoms: C_8  and  C_9
REMARK    3  A    between atoms: C_9  and  N_10
REMARK    4  A    between atoms: C_21  and  S_22
REMARK                            x       y       z     vdW  Elec       q    Type
REMARK                         _______ _______ _______ _____ _____    ______ ____
ROOT
ATOM      1  N   UNL     1     -13.487  14.424  -6.475  0.00  0.00    +0.000 N 
ATOM      2  C   UNL     1     -14.300  13.522  -7.356  0.00  0.00    +0.000 A 
ATOM      3  C   UNL     1     -13.618  12.506  -8.223  0.00  0.00    +0.000 A 
ATOM      4  C   UNL     1     -14.431  11.605  -9.104  0.00  0.00    +0.000 A 
ATOM      5  C   UNL     1     -15.927  11.720  -9.118  0.00  0.00    +0.000 A 
ATOM      6  C   UNL     1     -16.609  12.736  -8.252  0.00  0.00    +0.000 A 
ATOM      7  C   UNL     1     -15.796  13.637  -7.371  0.00  0.00    +0.000 A 
ATOM      8  S   UNL     1     -16.478  14.654  -6.504  0.00  0.00    +0.000 S 
ATOM      9  C   UNL     1     -15.665  15.555  -5.623  0.00  0.00    +0.000 A 
ATOM     10  C   UNL     1     -16.347  16.571  -4.756  0.00  0.00    +0.000 A 
ATOM     11  C   UNL     1     -15.534  17.473  -3.875  0.00  0.00    +0.000 A 
ATOM     12  C   UNL     1     -14.038  17.358  -3.861  0.00  0.00    +0.000 A 
ATOM     13  C   UNL     1     -13.356  16.341  -4.728  0.00  0.00    +0.000 A 
ATOM     14  C   UNL     1     -14.169  15.440  -5.609  0.00  0.00    +0.000 A 
ENDROOT
BRANCH  12  15
ATOM     15  S   UNL     1     -13.225  18.259  -2.980  0.00  0.00    +0.000 S 
ATOM     16  C   UNL     1     -12.290  17.671  -1.965  0.00  0.00    +0.000 C 
ATOM     17  O   UNL     1     -13.347  19.748  -3.114  0.00  0.00    +0.000 OA
ENDBRANCH  12  15
BRANCH   1  18
ATOM     18  C   UNL     1     -11.992  14.309  -6.461  0.00  0.00    +0.000 C 
BRANCH  18  19
ATOM     19  C   UNL     1     -11.160  15.244  -7.288  0.00  0.00    +0.000 C 
BRANCH  19  26
ATOM     20  C   UNL     1      -9.458  14.959  -9.742  0.00  0.00    +0.000 C 
ATOM     21  N   UNL     1      -8.814  15.082  -8.393  0.00  0.00    +0.000 NA
ATOM     22  C   UNL     1      -7.319  15.063  -8.271  0.00  0.00    +0.000 C 
ATOM     23  C   UNL     1      -6.675  15.186  -6.922  0.00  0.00    +0.000 C 
ATOM     24  C   UNL     1      -7.526  15.329  -5.695  0.00  0.00    +0.000 C 
ATOM     25  C   UNL     1      -9.021  15.348  -5.817  0.00  0.00    +0.000 C 
ATOM     26  C   UNL     1      -9.665  15.224  -7.166  0.00  0.00    +0.000 C 
ENDBRANCH  19  26
ENDBRANCH  18  19
ENDBRANCH   1  18
TORSDOF 4
ENDMDL
MODEL 4
REMARK VINA RESULT:      -5.6      7.108     10.939
REMARK  Name = 
REMARK  4 active torsions:
REMARK  status: ('A' for Active; 'I' for Inactive)
REMARK    1  A    between atoms: C_7  and  C_8
REMARK    2  A    between atoms: C_8  and  C_9
REMARK    3  A    between atoms: C_9  and  N_10
REMARK    4  A    between atoms: C_21  and  S_22
REMARK                            x       y       z     vdW  Elec       q    Type
REMARK                         _______ _______ _______ _____ _____    ______ ____
ROOT
ATOM      1  N   UNL     1     -20.083  10.818 -10.524  0.00  0.00    +0.000 N 
ATOM      2  C   UNL     1     -21.559  11.058 -10.396  0.00  0.00    +0.000 A 
ATOM      3  C   UNL     1     -22.523  10.252 -11.216  0.00  0.00    +0.000 A 
ATOM      4  C   UNL     1     -23.998  10.492 -11.088  0.00  0.00    +0.000 A 
ATOM      5  C   UNL     1     -24.509  11.537 -10.141  0.00  0.00    +0.000 A 
ATOM      6  C   UNL     1     -23.545  12.342  -9.322  0.00  0.00    +0.000 A 
ATOM      7  C   UNL     1     -22.070  12.103  -9.449  0.00  0.00    +0.000 A 
ATOM      8  S   UNL     1     -21.106  12.908  -8.630  0.00  0.00    +0.000 S 
ATOM      9  C   UNL     1     -19.630  12.668  -8.757  0.00  0.00    +0.000 A 
ATOM     10  C   UNL     1     -18.666  13.474  -7.938  0.00  0.00    +0.000 A 
ATOM     11  C   UNL     1     -17.191  13.234  -8.066  0.00  0.00    +0.000 A 
ATOM     12  C   UNL     1     -16.680  12.189  -9.013  0.00  0.00    +0.000 A 
ATOM     13  C   UNL     1     -17.644  11.384  -9.832  0.00  0.00    +0.000 A 
ATOM     14  C   UNL     1     -19.119  11.623  -9.705  0.00  0.00    +0.000 A 
ENDROOT
BRANCH  12  15
ATOM     15  S   UNL     1     -15.205  11.950  -9.140  0.00  0.00    +0.000 S 
ATOM     16  C   UNL     1     -14.292  12.263  -7.992  0.00  0.00    +0.000 C 
ATOM     17  O   UNL     1     -14.642  11.397 -10.416  0.00  0.00    +0.000 OA
ENDBRANCH  12  15
BRANCH   1  18
ATOM     18  C   UNL     1     -19.572   9.773 -11.471  0.00  0.00    +0.000 C 
BRANCH  18  19
ATOM     19  C   UNL     1     -19.205   8.412 -10.959  0.00  0.00    +0.000 C 
BRANCH  19  26
ATOM     20  C   UNL     1     -19.115   6.433 -13.211  0.00  0.00    +0.000 C 
ATOM     21  N   UNL     1     -20.158   6.305 -12.141  0.00  0.00    +0.000 NA
ATOM     22  C   UNL     1     -21.157   5.187 -12.197  0.00  0.00    +0.000 C 
ATOM     23  C   UNL     1     -22.201   5.059 -11.127  0.00  0.00    +0.000 C 
ATOM     24  C   UNL     1     -22.245   6.048 -10.001  0.00  0.00    +0.000 C 
ATOM     25  C   UNL     1     -21.247   7.166  -9.945  0.00  0.00    +0.000 C 
ATOM     26  C   UNL     1     -20.203   7.294 -11.015  0.00  0.00    +0.000 C 
ENDBRANCH  19  26
ENDBRANCH  18  19
ENDBRANCH   1  18
TORSDOF 4
ENDMDL
MODEL 5
REMARK VINA RESULT:      -5.5      4.164      6.910
REMARK  Name = 
REMARK  4 active torsions:
REMARK  status: ('A' for Active; 'I' for Inactive)
REMARK    1  A    between atoms: C_7  and  C_8
REMARK    2  A    between atoms: C_8  and  C_9
REMARK    3  A    between atoms: C_9  and  N_10
REMARK    4  A    between atoms: C_21  and  S_22
REMARK                            x       y       z     vdW  Elec       q    Type
REMARK                         _______ _______ _______ _____ _____    ______ ____
ROOT
ATOM      1  N   UNL     1      -8.610  15.919  -5.063  0.00  0.00    +0.000 N 
ATOM      2  C   UNL     1      -7.182  15.569  -5.364  0.00  0.00    +0.000 A 
ATOM      3  C   UNL     1      -6.840  14.836  -6.627  0.00  0.00    +0.000 A 
ATOM      4  C   UNL     1      -5.413  14.487  -6.928  0.00  0.00    +0.000 A 
ATOM      5  C   UNL     1      -4.328  14.870  -5.966  0.00  0.00    +0.000 A 
ATOM      6  C   UNL     1      -4.670  15.603  -4.703  0.00  0.00    +0.000 A 
ATOM      7  C   UNL     1      -6.098  15.953  -4.402  0.00  0.00    +0.000 A 
ATOM      8  S   UNL     1      -6.440  16.686  -3.139  0.00  0.00    +0.000 S 
ATOM      9  C   UNL     1      -7.867  17.035  -2.838  0.00  0.00    +0.000 A 
ATOM     10  C   UNL     1      -8.210  17.768  -1.575  0.00  0.00    +0.000 A 
ATOM     11  C   UNL     1      -9.637  18.118  -1.274  0.00  0.00    +0.000 A 
ATOM     12  C   UNL     1     -10.722  17.735  -2.236  0.00  0.00    +0.000 A 
ATOM     13  C   UNL     1     -10.379  17.002  -3.499  0.00  0.00    +0.000 A 
ATOM     14  C   UNL     1      -8.952  16.652  -3.800  0.00  0.00    +0.000 A 
ENDROOT
BRANCH  12  15
ATOM     15  S   UNL     1     -12.149  18.084  -1.936  0.00  0.00    +0.000 S 
ATOM     16  C   UNL     1     -12.511  19.485  -1.540  0.00  0.00    +0.000 C 
ATOM     17  O   UNL     1     -13.215  17.033  -2.030  0.00  0.00    +0.000 OA
ENDBRANCH  12  15
BRANCH   1  18
ATOM     18  C   UNL     1      -9.695  15.536  -6.026  0.00  0.00    +0.000 C 
BRANCH  18  19
ATOM     19  C   UNL     1     -10.010  16.423  -7.193  0.00  0.00    +0.000 C 
BRANCH  19  26
ATOM     20  C   UNL     1      -7.926  18.433  -7.979  0.00  0.00    +0.000 C 
ATOM     21  N   UNL     1      -8.218  17.266  -8.875  0.00  0.00    +0.000 NA
ATOM     22  C   UNL     1      -7.469  17.104 -10.164  0.00  0.00    +0.000 C 
ATOM     23  C   UNL     1      -7.762  15.938 -11.061  0.00  0.00    +0.000 C 
ATOM     24  C   UNL     1      -8.804  14.933 -10.668  0.00  0.00    +0.000 C 
ATOM     25  C   UNL     1      -9.553  15.095  -9.379  0.00  0.00    +0.000 C 
ATOM     26  C   UNL     1      -9.261  16.261  -8.482  0.00  0.00    +0.000 C 
ENDBRANCH  19  26
ENDBRANCH  18  19
ENDBRANCH   1  18
TORSDOF 4
ENDMDL
MODEL 6
REMARK VINA RESULT:      -5.5      2.498      5.253
REMARK  Name = 
REMARK  4 active torsions:
REMARK  status: ('A' for Active; 'I' for Inactive)
REMARK    1  A    between atoms: C_7  and  C_8
REMARK    2  A    between atoms: C_8  and  C_9
REMARK    3  A    between atoms: C_9  and  N_10
REMARK    4  A    between atoms: C_21  and  S_22
REMARK                            x       y       z     vdW  Elec       q    Type
REMARK                         _______ _______ _______ _____ _____    ______ ____
ROOT
ATOM      1  N   UNL     1     -10.290  16.045  -7.087  0.00  0.00    +0.000 N 
ATOM      2  C   UNL     1      -9.325  15.899  -8.226  0.00  0.00    +0.000 A 
ATOM      3  C   UNL     1      -9.783  15.305  -9.525  0.00  0.00    +0.000 A 
ATOM      4  C   UNL     1      -8.818  15.159 -10.664  0.00  0.00    +0.000 A 
ATOM      5  C   UNL     1      -7.395  15.607 -10.504  0.00  0.00    +0.000 A 
ATOM      6  C   UNL     1      -6.938  16.200  -9.205  0.00  0.00    +0.000 A 
ATOM      7  C   UNL     1      -7.903  16.346  -8.066  0.00  0.00    +0.000 A 
ATOM      8  S   UNL     1      -7.445  16.940  -6.766  0.00  0.00    +0.000 S 
ATOM      9  C   UNL     1      -8.410  17.086  -5.627  0.00  0.00    +0.000 A 
ATOM     10  C   UNL     1      -7.952  17.680  -4.328  0.00  0.00    +0.000 A 
ATOM     11  C   UNL     1      -8.917  17.826  -3.189  0.00  0.00    +0.000 A 
ATOM     12  C   UNL     1     -10.340  17.378  -3.349  0.00  0.00    +0.000 A 
ATOM     13  C   UNL     1     -10.798  16.785  -4.649  0.00  0.00    +0.000 A 
ATOM     14  C   UNL     1      -9.833  16.639  -5.788  0.00  0.00    +0.000 A 
ENDROOT
BRANCH  12  15
ATOM     15  S   UNL     1     -11.305  17.524  -2.210  0.00  0.00    +0.000 S 
ATOM     16  C   UNL     1     -11.885  18.869  -1.887  0.00  0.00    +0.000 C 
ATOM     17  O   UNL     1     -11.690  16.326  -1.395  0.00  0.00    +0.000 OA
ENDBRANCH  12  15
BRANCH   1  18
ATOM     18  C   UNL     1     -11.713  15.598  -7.247  0.00  0.00    +0.000 C 
BRANCH  18  19
ATOM     19  C   UNL     1     -12.164  14.301  -6.643  0.00  0.00    +0.000 C 
BRANCH  19  26
ATOM     20  C   UNL     1     -14.945  15.098  -5.848  0.00  0.00    +0.000 C 
ATOM     21  N   UNL     1     -14.736  13.975  -6.820  0.00  0.00    +0.000 NA
ATOM     22  C   UNL     1     -15.917  13.251  -7.394  0.00  0.00    +0.000 C 
ATOM     23  C   UNL     1     -15.708  12.128  -8.366  0.00  0.00    +0.000 C 
ATOM     24  C   UNL     1     -14.317  11.729  -8.764  0.00  0.00    +0.000 C 
ATOM     25  C   UNL     1     -13.136  12.454  -8.190  0.00  0.00    +0.000 C 
ATOM     26  C   UNL     1     -13.345  13.577  -7.217  0.00  0.00    +0.000 C 
ENDBRANCH  19  26
ENDBRANCH  18  19
ENDBRANCH   1  18
TORSDOF 4
ENDMDL
MODEL 7
REMARK VINA RESULT:      -5.5      4.325      7.555
REMARK  Name = 
REMARK  4 active torsions:
REMARK  status: ('A' for Active; 'I' for Inactive)
REMARK    1  A    between atoms: C_7  and  C_8
REMARK    2  A    between atoms: C_8  and  C_9
REMARK    3  A    between atoms: C_9  and  N_10
REMARK    4  A    between atoms: C_21  and  S_22
REMARK                            x       y       z     vdW  Elec       q    Type
REMARK                         _______ _______ _______ _____ _____    ______ ____
ROOT
ATOM      1  N   UNL     1     -16.666  14.507  -6.981  0.00  0.00    +0.000 N 
ATOM      2  C   UNL     1     -16.398  13.331  -7.874  0.00  0.00    +0.000 A 
ATOM      3  C   UNL     1     -17.517  12.721  -8.665  0.00  0.00    +0.000 A 
ATOM      4  C   UNL     1     -17.249  11.546  -9.558  0.00  0.00    +0.000 A 
ATOM      5  C   UNL     1     -15.863  10.981  -9.660  0.00  0.00    +0.000 A 
ATOM      6  C   UNL     1     -14.745  11.592  -8.868  0.00  0.00    +0.000 A 
ATOM      7  C   UNL     1     -15.012  12.767  -7.975  0.00  0.00    +0.000 A 
ATOM      8  S   UNL     1     -13.894  13.377  -7.184  0.00  0.00    +0.000 S 
ATOM      9  C   UNL     1     -14.162  14.553  -6.291  0.00  0.00    +0.000 A 
ATOM     10  C   UNL     1     -13.043  15.163  -5.499  0.00  0.00    +0.000 A 
ATOM     11  C   UNL     1     -13.311  16.338  -4.606  0.00  0.00    +0.000 A 
ATOM     12  C   UNL     1     -14.697  16.903  -4.505  0.00  0.00    +0.000 A 
ATOM     13  C   UNL     1     -15.815  16.292  -5.296  0.00  0.00    +0.000 A 
ATOM     14  C   UNL     1     -15.548  15.117  -6.189  0.00  0.00    +0.000 A 
ENDROOT
BRANCH  12  15
ATOM     15  S   UNL     1     -14.965  18.078  -3.612  0.00  0.00    +0.000 S 
ATOM     16  C   UNL     1     -16.376  18.469  -3.289  0.00  0.00    +0.000 C 
ATOM     17  O   UNL     1     -13.820  18.862  -3.041  0.00  0.00    +0.000 OA
ENDBRANCH  12  15
BRANCH   1  18
ATOM     18  C   UNL     1     -18.052  15.071  -6.879  0.00  0.00    +0.000 C 
BRANCH  18  19
ATOM     19  C   UNL     1     -18.944  14.669  -5.743  0.00  0.00    +0.000 C 
BRANCH  19  26
ATOM     20  C   UNL     1     -20.817  14.062  -3.479  0.00  0.00    +0.000 C 
ATOM     21  N   UNL     1     -21.221  13.753  -4.890  0.00  0.00    +0.000 NA
ATOM     22  C   UNL     1     -22.562  13.140  -5.169  0.00  0.00    +0.000 C 
ATOM     23  C   UNL     1     -22.965  12.831  -6.580  0.00  0.00    +0.000 C 
ATOM     24  C   UNL     1     -22.029  13.134  -7.712  0.00  0.00    +0.000 C 
ATOM     25  C   UNL     1     -20.689  13.747  -7.433  0.00  0.00    +0.000 C 
ATOM     26  C   UNL     1     -20.285  14.056  -6.022  0.00  0.00    +0.000 C 
ENDBRANCH  19  26
ENDBRANCH  18  19
ENDBRANCH   1  18
TORSDOF 4
ENDMDL
MODEL 8
REMARK VINA RESULT:      -5.5      3.515      7.290
REMARK  Name = 
REMARK  4 active torsions:
REMARK  status: ('A' for Active; 'I' for Inactive)
REMARK    1  A    between atoms: C_7  and  C_8
REMARK    2  A    between atoms: C_8  and  C_9
REMARK    3  A    between atoms: C_9  and  N_10
REMARK    4  A    between atoms: C_21  and  S_22
REMARK                            x       y       z     vdW  Elec       q    Type
REMARK                         _______ _______ _______ _____ _____    ______ ____
ROOT
ATOM      1  N   UNL     1      -6.342  16.802  -4.250  0.00  0.00    +0.000 N 
ATOM      2  C   UNL     1      -4.993  16.664  -3.608  0.00  0.00    +0.000 A 
ATOM      3  C   UNL     1      -4.687  17.403  -2.339  0.00  0.00    +0.000 A 
ATOM      4  C   UNL     1      -3.339  17.265  -1.698  0.00  0.00    +0.000 A 
ATOM      5  C   UNL     1      -2.295  16.389  -2.325  0.00  0.00    +0.000 A 
ATOM      6  C   UNL     1      -2.601  15.651  -3.595  0.00  0.00    +0.000 A 
ATOM      7  C   UNL     1      -3.950  15.788  -4.236  0.00  0.00    +0.000 A 
ATOM      8  S   UNL     1      -4.255  15.050  -5.506  0.00  0.00    +0.000 S 
ATOM      9  C   UNL     1      -5.604  15.187  -6.147  0.00  0.00    +0.000 A 
ATOM     10  C   UNL     1      -5.910  14.449  -7.416  0.00  0.00    +0.000 A 
ATOM     11  C   UNL     1      -7.259  14.587  -8.058  0.00  0.00    +0.000 A 
ATOM     12  C   UNL     1      -8.302  15.463  -7.430  0.00  0.00    +0.000 A 
ATOM     13  C   UNL     1      -7.996  16.201  -6.161  0.00  0.00    +0.000 A 
ATOM     14  C   UNL     1      -6.647  16.064  -5.519  0.00  0.00    +0.000 A 
ENDROOT
BRANCH  12  15
ATOM     15  S   UNL     1      -9.651  15.600  -8.072  0.00  0.00    +0.000 S 
ATOM     16  C   UNL     1     -10.893  15.451  -7.245  0.00  0.00    +0.000 C 
ATOM     17  O   UNL     1      -9.757  15.887  -9.540  0.00  0.00    +0.000 OA
ENDBRANCH  12  15
BRANCH   1  18
ATOM     18  C   UNL     1      -7.385  17.678  -3.622  0.00  0.00    +0.000 C 
BRANCH  18  19
ATOM     19  C   UNL     1      -8.239  17.148  -2.509  0.00  0.00    +0.000 C 
BRANCH  19  26
ATOM     20  C   UNL     1      -9.965  16.330  -0.195  0.00  0.00    +0.000 C 
ATOM     21  N   UNL     1     -10.592  16.682  -1.511  0.00  0.00    +0.000 NA
ATOM     22  C   UNL     1     -12.083  16.626  -1.671  0.00  0.00    +0.000 C 
ATOM     23  C   UNL     1     -12.710  16.979  -2.987  0.00  0.00    +0.000 C 
ATOM     24  C   UNL     1     -11.847  17.388  -4.143  0.00  0.00    +0.000 C 
ATOM     25  C   UNL     1     -10.357  17.444  -3.984  0.00  0.00    +0.000 C 
ATOM     26  C   UNL     1      -9.729  17.091  -2.668  0.00  0.00    +0.000 C 
ENDBRANCH  19  26
ENDBRANCH  18  19
ENDBRANCH   1  18
TORSDOF 4
ENDMDL
MODEL 9
REMARK VINA RESULT:      -5.4      4.360      8.099
REMARK  Name = 
REMARK  4 active torsions:
REMARK  status: ('A' for Active; 'I' for Inactive)
REMARK    1  A    between atoms: C_7  and  C_8
REMARK    2  A    between atoms: C_8  and  C_9
REMARK    3  A    between atoms: C_9  and  N_10
REMARK    4  A    between atoms: C_21  and  S_22
REMARK                            x       y       z     vdW  Elec       q    Type
REMARK                         _______ _______ _______ _____ _____    ______ ____
ROOT
ATOM      1  N   UNL     1     -17.360  14.510  -6.805  0.00  0.00    +0.000 N 
ATOM      2  C   UNL     1     -17.444  13.414  -7.827  0.00  0.00    +0.000 A 
ATOM      3  C   UNL     1     -18.775  13.020  -8.397  0.00  0.00    +0.000 A 
ATOM      4  C   UNL     1     -18.858  11.925  -9.418  0.00  0.00    +0.000 A 
ATOM      5  C   UNL     1     -17.612  11.224  -9.869  0.00  0.00    +0.000 A 
ATOM      6  C   UNL     1     -16.281  11.618  -9.300  0.00  0.00    +0.000 A 
ATOM      7  C   UNL     1     -16.197  12.713  -8.278  0.00  0.00    +0.000 A 
ATOM      8  S   UNL     1     -14.867  13.107  -7.708  0.00  0.00    +0.000 S 
ATOM      9  C   UNL     1     -14.783  14.202  -6.687  0.00  0.00    +0.000 A 
ATOM     10  C   UNL     1     -13.453  14.596  -6.117  0.00  0.00    +0.000 A 
ATOM     11  C   UNL     1     -13.369  15.692  -5.096  0.00  0.00    +0.000 A 
ATOM     12  C   UNL     1     -14.616  16.393  -4.644  0.00  0.00    +0.000 A 
ATOM     13  C   UNL     1     -15.946  15.999  -5.214  0.00  0.00    +0.000 A 
ATOM     14  C   UNL     1     -16.030  14.904  -6.236  0.00  0.00    +0.000 A 
ENDROOT
BRANCH  12  15
ATOM     15  S   UNL     1     -14.532  17.488  -3.623  0.00  0.00    +0.000 S 
ATOM     16  C   UNL     1     -14.783  18.911  -4.027  0.00  0.00    +0.000 C 
ATOM     17  O   UNL     1     -14.197  17.161  -2.198  0.00  0.00    +0.000 OA
ENDBRANCH  12  15
BRANCH   1  18
ATOM     18  C   UNL     1     -18.607  15.211  -6.354  0.00  0.00    +0.000 C 
BRANCH  18  19
ATOM     19  C   UNL     1     -19.540  14.537  -5.392  0.00  0.00    +0.000 C 
BRANCH  19  26
ATOM     20  C   UNL     1     -21.162  13.055  -3.350  0.00  0.00    +0.000 C 
ATOM     21  N   UNL     1     -20.644  14.428  -3.043  0.00  0.00    +0.000 NA
ATOM     22  C   UNL     1     -20.937  15.061  -1.714  0.00  0.00    +0.000 C 
ATOM     23  C   UNL     1     -20.419  16.435  -1.407  0.00  0.00    +0.000 C 
ATOM     24  C   UNL     1     -19.608  17.176  -2.428  0.00  0.00    +0.000 C 
ATOM     25  C   UNL     1     -19.315  16.544  -3.757  0.00  0.00    +0.000 C 
ATOM     26  C   UNL     1     -19.833  15.170  -4.064  0.00  0.00    +0.000 C 
ENDBRANCH  19  26
ENDBRANCH  18  19
ENDBRANCH   1  18
TORSDOF 4
ENDMDL
